.MODEL 2N2219A NPN (IKR=0.285 RB=1.53 RE=0.383 RC=0.153 CJE=2.41E-11 VJE=1.1 MJE=0.5 TF=4.54E-10 CJC=2.02E-11 VJC=0.3 MJC=0.3 TR=3.15E-7 XTB=1.5 )
.MODEL 2N2222A NPN (IS=8.11E-14 BF=205 VAF=113 IKF=0.5 ISE=1.06E-11 NE=2 BR=4 VAR=24 IKR=0.225 RB=1.37 RE=0.343 RC=0.137 CJE=2.95E-11 TF=3.97E-10 CJC=1.52E-11 TR=8.5E-8 XTB=1.5 )
.MODEL 2N2369A NPN (IS=11.2F NF=1 BF=130 VAF=69.7 IKF=57M ISE=8.01P NE=2 BR=4 NR=1 VAR=18 IKR=85.5M RE=2.06 RB=8.26 RC=.826 XTB=1.5 CJE=3.17P VJE=1.1 MJE=.5 CJC=5.91P VJC=.3 MJC=.3 TF=265P TR=10.2N)
.MODEL 2N2218A NPN (IS=18.561E-15 BF=74.922 VAF=100 IKF=5.1341 ISE=29.173E-15 NE=1.6020 BR=35.209 VAR=100 IKR=2.4150 ISC=20.871E-15 NC=1.7898 NK=1.8506 RB=3.0372 RC=2.7812E-3 CJE=22.589E-12 VJE=.66037 MJE=.31082 CJC=11.078E-12 VJC=.45374 MJC=.30658 TF=971.58E-12 XTF=51.487 VTF=122.48 ITF=1.3928 TR=10.000E-9)
.MODEL 2N2484 NPN (IS=5.07F NF=1 BF=455 VAF=139 IKF=30M ISE=1.11P NE=2 BR=4 NR=1 VAR=24 IKR=45M RE=1.03 RB=4.12 RC=.412 XTB=1.5 CJE=4.82P VJE=1.1 MJE=.5 CJC=7.1P VJC=.3 MJC=.3 TF=1.59N TR=1.1U)
.MODEL 2N3019 NPN (IS=2.02F NF=1 BF=260 VAF=161 IKF=.75 ISE=6.16P NE=2 BR=4 NR=1 VAR=28 IKR=1.12 RE=.331 RB=1.32 RC=.132 XTB=1.5 CJE=76P VJE=1.1 MJE=.5 CJC=18.7P VJC=.3 MJC=.3 TF=837P TR=581N)
.MODEL 2N3053 NPN (IS=71.1F NF=1 BF=260 VAF=113 IKF=.42 ISE=27.3P NE=2 BR=4 NR=1 VAR=20 IKR=.63 RE=73.6M RB=.294 RC=29.4M XTB=1.5 CJE=79.2P VJE=1.1 MJE=.5 CJC=25.5P VJC=.3 MJC=.3 TF=858P TR=596N)
.MODEL 2N3055 NPN (IS=4.66E-12 BF=360 VAF=100 IKF=0.25 ISE=3.339E-11 BR=2 ISC=5E-9 RB=3 IRB=0.001 RBM=0.4 RC=0.04 CJE=5.802E-10 VJE=1.2 MJE=0.45 TF=8E-8 XTF=1 ITF=3 PTF=120 CJC=2.121E-10 MJC=0.4 TR=2.55E-6 XTB=1 )
.MODEL 2N3501 NPN (IS=30.4F NF=1 BF=136 VAF=220 IKF=.12 ISE=18.2P NE=2 BR=4 NR=1 VAR=24 IKR=.18 RE=.171 RB=.687 RC=68.7M XTB=1.5 CJE=63.5P VJE=1.1 MJE=.5 CJC=14.6P VJC=.3 MJC=.3 TF=562P TR=390N)
.MODEL 2N3507 NPN (IS=1.5E-8 BF=75 NF=1.67 VAF=100 IKF=1.2 BR=4 RC=0.2 CJE=5E-10 TF=1.8E-9 CJC=7E-11 TR=2.5E-8 XTB=1.5 )
.MODEL 2N3700 NPN (IS=2.02F NF=1 BF=260 VAF=161 IKF=.75 ISE=6.16P NE=2 BR=4 NR=1 VAR=28 IKR=1.12 RE=.331 RB=1.32 RC=.132 XTB=1.5 CJE=76P VJE=1.1 MJE=.5 CJC=18.7P VJC=.3 MJC=.3 TF=837P TR=581N)
.MODEL 2N3904 NPN (IS=1.4E-14 BF=300 VAF=100 IKF=0.025 ISE=3E-13 BR=7.5 RC=2.4 CJE=4.5E-12 TF=4E-10 CJC=3.5E-12 TR=2.1E-8 XTB=1.5 KF=9E-16 )
.MODEL 2N3947 NPN (IS=.258F NF=1 BF=286 VAF=113 IKF=32M ISE=413F NE=2 BR=4 NR=1 VAR=24 IKR=48M RE=1.03 RB=4.12 RC=.412 XTB=1.5 CJE=7.18P VJE=1.1 MJE=.5 CJC=6.15P VJC=.3 MJC=.3 TF=458P TR=425N)
.MODEL 2N4401 NPN (IS=9.09E-15 BF=300 VAF=113 IKF=0.36 ISE=1.06E-11 NE=2 BR=4 VAR=24 IKR=0.54 RB=1.27 RE=0.319 RC=0.127 CJE=2.34E-11 TF=5.12E-10 CJC=1.02E-11 TR=1.51E-7 XTB=1.5 )
.MODEL 2N5551 NPN (IS=2.67E-20 NF=1 BF=195 VAF=227 IKF=15M ISE=4.22F NE=2 BR=4 NR=1 VAR=24 IKR=22.5M RE=1.63 RB=6.52 RC=.652 XTB=1.5 CJE=17.9P VJE=1.1 MJE=.5 CJC=7.76P VJC=.3 MJC=.3 TF=530P TR=595N)
.MODEL 2N6431 NPN (IS=5.07F NF=1 BF=130 VAF=311 IKF=30M ISE=3.9P NE=2 BR=4 NR=1 VAR=24 IKR=45M RE=1.03 RB=4.12 RC=.412 XTB=1.5 CJE=12.4P VJE=1.1 MJE=.5 CJC=4.02P VJC=.3 MJC=.3 TF=530P TR=368N)
.MODEL 2N6517 NPN (IS=67.3F NF=1 BF=320 VAF=336 IKF=90M ISE=97.3P NE=2 BR=4 NR=1 VAR=24 IKR=.135 RE=9.63 RB=38.5 RC=3.85 XTB=1.5 CJE=58P VJE=1.1 MJE=.5 CJC=13.3P VJC=.3 MJC=.3 TF=795P TR=5.1U)
.MODEL 2N6715 NPN (IS=2.22E-13 BF=230 NF=0.9956 VAF=100 IKF=2 ISE=2.9E-14 NE=1.35 BR=56 NR=0.995 VAR=30 IKR=1 ISC=2.97E-13 NC=1.321 RB=0.04 RE=0.075 RC=0.069 CJE=3.18E-10 TF=7.7E-10 CJC=5.1E-11 VJC=0.595 MJC=0.42 TR=2.7E-8 )
.MODEL 2N5191 NPN (IS=8.29193e-15 BF=227.67 NF=0.85 VAF=39.1081 IKF=0.514124 ISE=9.34801e-10 NE=3.50563 BR=22.767 NR=0.75 VAR=42.1717 IKR=5.14124 ISC=5.72036e-13 NC=1 RB=123.534 IRB=0.1 RBM=0.1 RE=0.0175391 RC=0.0876957 XTB=0.782472 XTI=3.77615 EG=1.206 CJE=3.23913e-10 VJE=0.62831 MJE=0.562741 TF=1e-08 XTF=5.10189 VTF=7.58983 ITF=0.001 CJC=3.07847e-10 VJC=0.917369 MJC=0.499708 XCJC=0.799172 FC=0.8 CJS=0 VJS=0.75 MJS=0.5 TR=4.78357e-08 PTF=0 KF=0 AF=1)
.MODEL 2N3440 NPN (IS=9.94996F BF=163.605 NF=913.046M VAF=100 IKF=15.5211M ISE=100P NE=2.01619 BR=236.408M IKR=28.4896 ISC=21.8458F RE=329.989M CJE=108.21P VJE=999.994M MJE=432.75M CJC=19.8784P VJC=700M MJC=317.349M FC=500.001M TF=1N XTF=4.42138 VTF=10.0067 ITF=839.703F TR=12.5513U)
.MODEL 2SC2873 NPN (IS=3E-13 BF=225 VAF=80 IKF=2.8 ISE=1.1E-13 NE=1.37 BR=110 NR=0.972 VAR=28 IKR=0.8 ISC=6.5E-13 NC=1.372 RB=0.3 RE=0.063 RC=0.07 CJE=3.25E-10 TF=1E-9 CJC=7E-11 TR=1E-8 )
.MODEL 2SC3837K NPN (IS=2.0000E-15 BF=90.208 VAF=69.220 IKF=.22544 ISE=2.0000E-15 NE=1.3538 BR=4.2997 VAR=100 IKR=.78981 ISC=2.1585E-15 NC=1.0516 NK=.98009 RB=15.286 RC=2.4700 CJE=2.4548E-12 MJE=.24183 CJC=1.5434E-12 MJC=.20257 TF=90.277E-12 XTF=.9268 VTF=24.898 ITF=72.879E-3 TR=112.54E-9 XTB=1.5000)
.MODEL BC107BP NPN (IS=1.8E-14 BF=400 NF=0.9955 VAF=80 IKF=0.14 ISE=5E-14 NE=1.46 BR=35.5 NR=1.005 VAR=12.5 IKR=0.03 ISC=1.72E-13 NC=1.27 RB=0.56 RE=0.6 RC=0.25 CJE=1.3E-11 TF=6.4E-10 CJC=4E-12 VJC=0.54 TR=5.072E-8 )
.MODEL BC108BP NPN (IS=1.8E-14 BF=400 NF=0.9955 VAF=80 IKF=0.14 ISE=5E-14 NE=1.46 BR=35.5 NR=1.005 VAR=12.5 IKR=0.03 ISC=1.72E-13 NC=1.27 RB=0.56 RE=0.6 RC=0.25 CJE=1.3E-11 TF=6.4E-10 CJC=4E-12 VJC=0.54 TR=5.072E-8 )
.MODEL BC109BP NPN (IS=1.8E-14 BF=400 NF=0.9955 VAF=80 IKF=0.14 ISE=5E-14 NE=1.46 BR=35.5 NR=1.005 VAR=12.5 IKR=0.03 ISC=1.72E-13 NC=1.27 RB=0.56 RE=0.6 RC=0.25 CJE=1.3E-11 TF=6.4E-10 CJC=4E-12 VJC=0.54 TR=5.072E-8 )
.MODEL BC182BP NPN (IS=1.8E-14 BF=400 NF=0.9955 VAF=80 IKF=0.14 ISE=5E-14 NE=1.46 BR=35.5 NR=1.005 VAR=12.5 IKR=0.03 ISC=1.72E-13 NC=1.27 RB=0.56 RE=0.6 RC=0.25 CJE=1.3E-11 TF=6.4E-10 CJC=4E-12 VJC=0.54 TR=5.072E-8 )
.MODEL BC183BP NPN (IS=1.8E-14 BF=400 NF=0.9955 VAF=80 IKF=0.14 ISE=5E-14 NE=1.46 BR=35.5 NR=1.005 VAR=12.5 IKR=0.03 ISC=1.72E-13 NC=1.27 RB=0.56 RE=0.6 RC=0.25 CJE=1.3E-11 TF=6.4E-10 CJC=4E-12 VJC=0.54 TR=5.072E-8 )
.MODEL BC184BP NPN (IS=1.8E-14 BF=400 NF=0.9955 VAF=80 IKF=0.14 ISE=5E-14 NE=1.46 BR=35.5 NR=1.005 VAR=12.5 IKR=0.03 ISC=1.72E-13 NC=1.27 RB=0.56 RE=0.6 RC=0.25 CJE=1.3E-11 TF=6.4E-10 CJC=4E-12 VJC=0.54 TR=5.072E-8 )
.MODEL BC237BP NPN (IS=1.8E-14 BF=400 NF=0.9955 VAF=80 IKF=0.14 ISE=5E-14 NE=1.46 BR=35.5 NR=1.005 VAR=12.5 IKR=0.03 ISC=1.72E-13 NC=1.27 RB=0.56 RE=0.6 RC=0.25 CJE=1.3E-11 TF=6.4E-10 CJC=4E-12 VJC=0.54 TR=5.072E-8 )
.MODEL BC238BP NPN (IS=1.8E-14 BF=400 NF=0.9955 VAF=80 IKF=0.14 ISE=5E-14 NE=1.46 BR=35.5 NR=1.005 VAR=12.5 IKR=0.03 ISC=1.72E-13 NC=1.27 RB=0.56 RE=0.6 RC=0.25 CJE=1.3E-11 TF=6.4E-10 CJC=4E-12 VJC=0.54 TR=5.072E-8 )
.MODEL BC239BP NPN (IS=1.8E-14 BF=400 NF=0.9955 VAF=80 IKF=0.14 ISE=5E-14 NE=1.46 BR=35.5 NR=1.005 VAR=12.5 IKR=0.03 ISC=1.72E-13 NC=1.27 RB=0.56 RE=0.6 RC=0.25 CJE=1.3E-11 TF=6.4E-10 CJC=4E-12 VJC=0.54 TR=5.072E-8 )
.MODEL BC337AP NPN (IS=3.94E-14 BF=175 VAF=109.4 IKF=0.8 ISE=7.4E-15 NE=1.3 BR=20.5 NR=0.974 VAR=14.25 IKR=0.1 ISC=3.16E-13 NC=1.2 RB=1.1 RE=0.1259 RC=0.0539 CJE=6.3E-11 TF=7.5E-10 CJC=1.58E-11 VJC=0.505 MJC=0.39 TR=8.5E-8 )
.MODEL BC338AP NPN (IS=3.94E-14 BF=175 VAF=109.4 IKF=0.8 ISE=7.4E-15 NE=1.3 BR=20.5 NR=0.974 VAR=14.25 IKR=0.1 ISC=3.16E-13 NC=1.2 RB=1.1 RE=0.1259 RC=0.0539 CJE=6.3E-11 TF=7.5E-10 CJC=1.58E-11 VJC=0.505 MJC=0.39 TR=8.5E-8 )
.MODEL BC413BP NPN (IS=1.8E-14 BF=400 NF=0.9955 VAF=80 IKF=0.14 ISE=5E-14 NE=1.46 BR=35.5 NR=1.005 VAR=12.5 IKR=0.03 ISC=1.72E-13 NC=1.27 RB=0.56 RE=0.6 RC=0.25 CJE=1.3E-11 TF=6.4E-10 CJC=4E-12 VJC=0.54 TR=5.072E-8 )
.MODEL BC414BP NPN (IS=1.8E-14 BF=400 NF=0.9955 VAF=80 IKF=0.14 ISE=5E-14 NE=1.46 BR=35.5 NR=1.005 VAR=12.5 IKR=0.03 ISC=1.72E-13 NC=1.27 RB=0.56 RE=0.6 RC=0.25 CJE=1.3E-11 TF=6.4E-10 CJC=4E-12 VJC=0.54 TR=5.072E-8 )
.MODEL BC546BP NPN (IS=1.8E-14 BF=400 NF=0.9955 VAF=80 IKF=0.14 ISE=5E-14 NE=1.46 BR=35.5 NR=1.005 VAR=12.5 IKR=0.03 ISC=1.72E-13 NC=1.27 RB=0.56 RE=0.6 RC=0.25 CJE=1.3E-11 TF=6.4E-10 CJC=4E-12 VJC=0.54 TR=5.072E-8 )
.MODEL BC547BP NPN (IS=1.8E-14 BF=400 NF=0.9955 VAF=80 IKF=0.14 ISE=5E-14 NE=1.46 BR=35.5 NR=1.005 VAR=12.5 IKR=0.03 ISC=1.72E-13 NC=1.27 RB=0.56 RE=0.6 RC=0.25 CJE=1.3E-11 TF=6.4E-10 CJC=4E-12 VJC=0.54 TR=5.072E-8 )
.MODEL BC548BP NPN (IS=1.8E-14 BF=400 NF=0.9955 VAF=80 IKF=0.14 ISE=5E-14 NE=1.46 BR=35.5 NR=1.005 VAR=12.5 IKR=0.03 ISC=1.72E-13 NC=1.27 RB=0.56 RE=0.6 RC=0.25 CJE=1.3E-11 TF=6.4E-10 CJC=4E-12 VJC=0.54 TR=5.072E-8 )
.MODEL BC549BP NPN (IS=1.8E-14 BF=400 NF=0.9955 VAF=80 IKF=0.14 ISE=5E-14 NE=1.46 BR=35.5 NR=1.005 VAR=12.5 IKR=0.03 ISC=1.72E-13 NC=1.27 RB=0.56 RE=0.6 RC=0.25 CJE=1.3E-11 TF=6.4E-10 CJC=4E-12 VJC=0.54 TR=5.072E-8 )
.MODEL BC550BP NPN (IS=1.8E-14 BF=400 NF=0.9955 VAF=80 IKF=0.14 ISE=5E-14 NE=1.46 BR=35.5 NR=1.005 VAR=12.5 IKR=0.03 ISC=1.72E-13 NC=1.27 RB=0.56 RE=0.6 RC=0.25 CJE=1.3E-11 TF=6.4E-10 CJC=4E-12 VJC=0.54 TR=5.072E-8 )
.MODEL BC846B NPN (IS=1.8E-14 BF=400 NF=0.9955 VAF=80 IKF=0.14 ISE=5E-14 NE=1.46 BR=35.5 NR=1.005 VAR=12.5 IKR=0.03 ISC=1.72E-13 NC=1.27 RB=0.56 RE=0.6 RC=0.25 CJE=1.3E-11 TF=6.4E-10 CJC=4E-12 VJC=0.54 TR=5.072E-8 )
.MODEL BC847B NPN (IS=1.8E-14 BF=400 NF=0.9955 VAF=80 IKF=0.14 ISE=5E-14 NE=1.46 BR=35.5 NR=1.005 VAR=12.5 IKR=0.03 ISC=1.72E-13 NC=1.27 RB=0.56 RE=0.6 RC=0.25 CJE=1.3E-11 TF=6.4E-10 CJC=4E-12 VJC=0.54 TR=5.072E-8 )
.MODEL BC848B NPN (IS=1.8E-14 BF=400 NF=0.9955 VAF=80 IKF=0.14 ISE=5E-14 NE=1.46 BR=35.5 NR=1.005 VAR=12.5 IKR=0.03 ISC=1.72E-13 NC=1.27 RB=0.56 RE=0.6 RC=0.25 CJE=1.3E-11 TF=6.4E-10 CJC=4E-12 VJC=0.54 TR=5.072E-8 )
.MODEL BC849B NPN (IS=1.8E-14 BF=400 NF=0.9955 VAF=80 IKF=0.14 ISE=5E-14 NE=1.46 BR=35.5 NR=1.005 VAR=12.5 IKR=0.03 ISC=1.72E-13 NC=1.27 RB=0.56 RE=0.6 RC=0.25 CJE=1.3E-11 TF=6.4E-10 CJC=4E-12 VJC=0.54 TR=5.072E-8 )
.MODEL BC850B NPN (IS=1.8E-14 BF=400 NF=0.9955 VAF=80 IKF=0.14 ISE=5E-14 NE=1.46 BR=35.5 NR=1.005 VAR=12.5 IKR=0.03 ISC=1.72E-13 NC=1.27 RB=0.56 RE=0.6 RC=0.25 CJE=1.3E-11 TF=6.4E-10 CJC=4E-12 VJC=0.54 TR=5.072E-8 )
.MODEL BCV72 NPN (IS=1.8E-14 BF=400 NF=0.9955 VAF=80 IKF=0.14 ISE=5E-14 NE=1.46 BR=35.5 NR=1.005 VAR=12.5 IKR=0.03 ISC=1.72E-13 NC=1.27 RB=0.56 RE=0.6 RC=0.25 CJE=1.3E-11 TF=6.4E-10 CJC=4E-12 VJC=0.54 TR=5.072E-8 )
.MODEL BCW32 NPN (IS=1.8E-14 BF=400 NF=0.9955 VAF=80 IKF=0.14 ISE=5E-14 NE=1.46 BR=35.5 NR=1.005 VAR=12.5 IKR=0.03 ISC=1.72E-13 NC=1.27 RB=0.56 RE=0.6 RC=0.25 CJE=1.3E-11 TF=6.4E-10 CJC=4E-12 VJC=0.54 TR=5.072E-8 )
.MODEL BCW60C NPN (IS=1.8E-14 BF=400 NF=0.9955 VAF=80 IKF=0.14 ISE=5E-14 NE=1.46 BR=35.5 NR=1.005 VAR=12.5 IKR=0.03 ISC=1.72E-13 NC=1.27 RB=0.56 RE=0.6 RC=0.25 CJE=1.3E-11 TF=6.4E-10 CJC=4E-12 VJC=0.54 TR=5.072E-8 )
.MODEL BCW65A NPN (IS=3.94E-14 BF=175 VAF=109.4 IKF=0.8 ISE=7.4E-15 NE=1.3 BR=20.5 NR=0.974 VAR=14.25 IKR=0.1 ISC=3.16E-13 NC=1.2 RB=1.1 RE=0.1259 RC=0.0539 CJE=6.3E-11 TF=7.5E-10 CJC=1.58E-11 VJC=0.505 MJC=0.39 TR=8.5E-8 )
.MODEL BCW66F NPN (IS=3.94E-14 BF=175 VAF=109.4 IKF=0.8 ISE=7.4E-15 NE=1.3 BR=20.5 NR=0.974 VAR=14.25 IKR=0.1 ISC=3.16E-13 NC=1.2 RB=1.1 RE=0.1259 RC=0.0539 CJE=6.3E-11 TF=7.5E-10 CJC=1.58E-11 VJC=0.505 MJC=0.39 TR=8.5E-8 )
.MODEL BCW72 NPN (IS=1.8E-14 BF=400 NF=0.9955 VAF=80 IKF=0.14 ISE=5E-14 NE=1.46 BR=35.5 NR=1.005 VAR=12.5 IKR=0.03 ISC=1.72E-13 NC=1.27 RB=0.56 RE=0.6 RC=0.25 CJE=1.3E-11 TF=6.4E-10 CJC=4E-12 VJC=0.54 TR=5.072E-8 )
.MODEL BCX70J NPN (IS=1.8E-14 BF=400 NF=0.9955 VAF=80 IKF=0.14 ISE=5E-14 NE=1.46 BR=35.5 NR=1.005 VAR=12.5 IKR=0.03 ISC=1.72E-13 NC=1.27 RB=0.56 RE=0.6 RC=0.25 CJE=1.3E-11 TF=6.4E-10 CJC=4E-12 VJC=0.54 TR=5.072E-8 )
.MODEL BF720 NPN (IS=10.1F NF=1 BF=65 VAF=311 IKF=60M ISE=15.6P NE=2 BR=4 NR=1 VAR=20 IKR=90M RE=9.38 RB=37.5 RC=3.75 XTB=1.5 CJE=17.6P VJE=1.1 MJE=.5 CJC=5.68P VJC=.3 MJC=.3 TF=2.65N TR=1.84U)
.MODEL BFQ31 NPN (IS=1.73E-13 BF=200 VAF=90 IKF=0.0088 ISE=2.41E-10 NE=1.701 BR=3.124 NR=0.9705 VAR=9.7 IKR=0.02 ISC=8.31E-13 NC=1.112 RB=17 RE=2.13 RC=30 CJE=2.27E-12 TF=2E-10 CJC=1.2E-12 VJC=0.415 MJC=0.145 TR=1E-9 )
.MODEL BFS60 NPN (IS=3.94E-14 BF=175 VAF=109.4 IKF=0.8 ISE=7.4E-15 NE=1.3 BR=20.5 NR=0.974 VAR=14.25 IKR=0.1 ISC=3.16E-13 NC=1.2 RB=1.1 RE=0.1259 RC=0.0539 CJE=6.3E-11 TF=7.5E-10 CJC=1.58E-11 VJC=0.505 MJC=0.39 TR=8.5E-8 )
.MODEL FCX458 NPN (IS=5.33E-14 BF=190 NF=0.992 VAF=1050 IKF=0.075 ISE=2.1E-14 NE=1.385 BR=16.3 NR=1.05 VAR=99 IKR=1.8 ISC=6.42E-12 NC=1.25 RB=0.5 RE=0.224 RC=0.134 CJE=1.22E-10 TF=1.66E-9 CJC=8.5E-12 VJC=0.4332 MJC=0.3966 TR=8E-6 )
.MODEL FCX649 NPN (IS=3E-13 BF=225 VAF=80 IKF=2.8 ISE=1.1E-13 NE=1.37 BR=110 NR=0.972 VAR=28 IKR=0.8 ISC=6.5E-13 NC=1.372 RB=0.3 RE=0.063 RC=0.07 CJE=3.25E-10 TF=1E-9 CJC=7E-11 TR=1E-8 )
.MODEL FMMT918 NPN (IS=1.73E-13 BF=200 VAF=90 IKF=0.0088 ISE=2.41E-10 NE=1.701 BR=3.124 NR=0.9705 VAR=9.7 IKR=0.02 ISC=8.31E-13 NC=1.112 RB=17 RE=2.13 RC=30 CJE=2.27E-12 TF=2E-10 CJC=1.2E-12 VJC=0.415 MJC=0.145 TR=1E-9 )
.MODEL FMMTA20 NPN (IS=1.8E-14 BF=400 NF=0.9955 VAF=80 IKF=0.14 ISE=5E-14 NE=1.46 BR=35.5 NR=1.005 VAR=12.5 IKR=0.03 ISC=1.72E-13 NC=1.27 RB=0.56 RE=0.6 RC=0.25 CJE=1.3E-11 TF=6.4E-10 CJC=4E-12 VJC=0.54 TR=5.072E-8 )
.MODEL FZT649 NPN (IS=3E-13 BF=225 VAF=80 IKF=2.8 ISE=1.1E-13 NE=1.37 BR=110 NR=0.972 VAR=28 IKR=0.8 ISC=6.5E-13 NC=1.372 RB=0.3 RE=0.063 RC=0.07 CJE=3.25E-10 TF=1E-9 CJC=7E-11 TR=1E-8 )
.MODEL FZT651 NPN (IS=2.22E-13 BF=230 NF=0.9956 VAF=100 IKF=2 ISE=2.9E-14 NE=1.35 BR=56 NR=0.995 VAR=30 IKR=1 ISC=2.97E-13 NC=1.321 RB=0.04 RE=0.075 RC=0.069 CJE=3.18E-10 TF=7.7E-10 CJC=5.1E-11 VJC=0.595 MJC=0.42 TR=2.7E-8 )
.MODEL FZT657 NPN (IS=1.88E-13 BF=120 NF=1.003 VAF=1400 IKF=0.22 ISE=2.1E-14 NE=1.28 BR=8.3 NR=1.005 VAR=50 IKR=1.1 ISC=5E-13 NC=1.8 RB=0.1 RE=0.095 RC=0.146 CJE=3.7E-10 TF=1.77E-9 CJC=2.4E-11 VJC=0.525 MJC=0.48 TR=8E-7 )
.MODEL FZT658 NPN (IS=2.3E-13 BF=170 VAF=1367 IKF=0.165 ISE=6.14E-14 NE=1.39 BR=13 NR=1.002 VAR=59 IKR=0.85 ISC=9.19E-15 NC=1.032 RB=0.08 RE=0.136 RC=0.181 CJE=3.3E-10 TF=2.08E-9 CJC=2.25E-11 VJC=0.425 MJC=0.44 TR=2.3E-7 )
.MODEL FZT688B NPN (IS=1.09E-12 BF=1180 NF=0.9935 VAF=25 IKF=5.2 ISE=1.3E-13 NE=1.35 BR=790 NR=0.992 VAR=5 IKR=0.5 ISC=1.74E-13 NC=1.399 RB=0.3 RE=0.036 RC=0.034 CJE=2.8E-10 TF=9.3E-10 CJC=1.04E-10 VJC=0.46 MJC=0.29 TR=1.05E-9 )
.MODEL FZT689B NPN (IS=1.8E-12 BF=1850 NF=0.994 VAF=24 IKF=3.2 ISE=2.18E-13 NE=1.345 BR=370 NR=0.996 VAR=4 IKR=0.8 ISC=3.6E-13 NC=1.26 RB=0.2 RE=0.035 RC=0.036 CJE=2.48E-10 TF=7.2E-10 CJC=7.4E-11 VJC=0.485 MJC=0.35 TR=2.07E-9 )
.MODEL FZT690B NPN (IS=2.505E-12 BF=1360 NF=1.006 VAF=35 IKF=1.3 ISE=2.4E-13 NE=1.38 BR=125 NR=1.001 VAR=8 IKR=1 ISC=4.35E-13 NC=1.213 RB=0.2 RE=0.043 RC=0.04 CJE=2.47E-10 TF=8.51E-10 CJC=5.43E-11 VJC=0.765 MJC=0.475 TR=1.57E-8 )
.MODEL FZT692B NPN (IS=1.87E-12 BF=1400 NF=0.9983 VAF=29 IKF=0.73 ISE=2.1E-13 NE=1.378 BR=68 NR=0.997 VAR=12 IKR=0.55 ISC=4.4E-13 NC=1.14 RB=0.2 RE=0.05 RC=0.048 CJE=2.33E-10 TF=7.7E-10 CJC=4.25E-11 VJC=0.625 MJC=0.475 TR=3.9E-8 )
.MODEL FZT694B NPN (IS=1.59E-12 BF=1009 NF=1.001 VAF=45 IKF=0.26 ISE=2.53E-13 NE=1.445 BR=40 VAR=30 IKR=1 ISC=3.26E-13 NC=1.075 RB=0.2 RE=0.065 RC=0.075 CJE=2.58E-10 TF=7.63E-10 CJC=3.55E-11 VJC=0.515 MJC=0.465 TR=1.3E-7 )
.MODEL FZT696B NPN (IS=9.85E-13 BF=705 NF=0.999 VAF=235 IKF=0.145 ISE=8.1E-14 NE=1.36 BR=20 NR=1.002 VAR=26 IKR=0.8 ISC=6.6E-13 NC=1.15 RB=0.07 RE=0.125 RC=0.098 CJE=2.7E-10 TF=1.301E-9 CJC=2.54E-11 VJC=0.445 MJC=0.47 TR=6.9E-7 )
.MODEL MM3725 NPN (IS=50.7F NF=1 BF=162 VAF=113 IKF=.45 ISE=38.2P NE=2 BR=4 NR=1 VAR=24 IKR=.675 RE=.263 RB=1.05 RC=.105 XTB=1.5 CJE=62.2P VJE=1.1 MJE=.5 CJC=14.6P VJC=.3 MJC=.3 TF=518P TR=45.9N)
.MODEL MMBT5089 NPN (IS=6.35F NF=1 BF=840 VAF=90 IKF=30M ISE=222F NE=2 BR=4 NR=1 VAR=18 IKR=45M RE=8.15 RB=32.6 RC=3.26 XTB=1.5 CJE=4.82P VJE=1.1 MJE=.5 CJC=4.26P VJC=.3 MJC=.3 TF=265P TR=184N)
.MODEL MMBT6517 NPN (IS=236F NF=1 BF=130 VAF=336 IKF=.1 ISE=48.6P NE=2 BR=4 NR=1 VAR=20 IKR=.15 RE=9.63 RB=38.5 RC=3.85 XTB=1.5 CJE=96.5P VJE=1.1 MJE=.5 CJC=21.2P VJC=.3 MJC=.3 TF=795P TR=552N)
.MODEL MMBTA06 NPN (IS=2.81E-17 NF=1 BF=260 VAF=161 IKF=.3 ISE=459F NE=2 BR=4 NR=1 VAR=16 IKR=.45 RE=.815 RB=3.26 RC=.326 XTB=1.5 CJE=58.7P VJE=1.1 MJE=.5 CJC=18.9P VJC=.3 MJC=.3 TF=795P TR=552N)
.MODEL MMBTA42 NPN (IS=887F NF=1 BF=78 VAF=311 IKF=.3 ISE=271P NE=2 BR=4 NR=1 VAR=24 IKR=.45 RE=11.5 RB=46.3 RC=4.63 XTB=1.5 CJE=32.9P VJE=1.1 MJE=.5 CJC=10.6P VJC=.3 MJC=.3 TF=2.65N TR=1.84U)
.MODEL MMBTH24 NPN (IS=5.07F NF=1 BF=65 VAF=98.6 IKF=30M ISE=7.8P NE=2 BR=4 NR=1 VAR=16 IKR=45M RE=1.03 RB=4.12 RC=.412 XTB=1.5 CJE=2.23P VJE=1.1 MJE=.5 CJC=722F VJC=.3 MJC=.3 TF=256P TR=178N)
.MODEL MMBT3904 NPN (IS=48.3f NF=1.00 BF=410 VAF=114 IKF=0.121 ISE=13.1p NE=2.00 BR=4.00 NR=1.00 VAR=24.0 IKR=0.300 RE=2.63 RB=10.5 RC=1.05 XTB=1.5 CJE=9.67p VJE=1.10 MJE=0.500 CJC=8.70p VJC=0.300 MJC=0.300 TF=440p TR=74.7n EG=1.12)
.MODEL MPS651 NPN (IS=72.1F NF=1 BF=260 VAF=139 IKF=2.5 ISE=67.1P NE=2 BR=4 NR=1 VAR=20 IKR=3.75 RE=28.2M RB=.113 RC=11.3M XTB=1.5 CJE=212P VJE=1.1 MJE=.5 CJC=68.6P VJC=.3 MJC=.3 TF=1.44N TR=1U)
.MODEL MPS918 NPN (IS=5.07F NF=1 BF=130 VAF=69.7 IKF=30M ISE=3.9P NE=2 BR=4 NR=1 VAR=12 IKR=45M RE=13.1 RB=52.6 RC=5.26 XTB=1.5 CJE=2.41P VJE=1.1 MJE=.5 CJC=4.91P VJC=.3 MJC=.3 TF=198P TR=138N)
.MODEL MPS2222A NPN (IS=.504F NF=1 BF=339 VAF=113 IKF=.36 ISE=1.63P NE=2 BR=4 NR=1 VAR=24 IKR=.54 RE=.173 RB=.692 RC=69.2M XTB=1.5 CJE=23.5P VJE=1.1 MJE=.5 CJC=10.6P VJC=.3 MJC=.3 TF=521P TR=272N)
.MODEL MPS2711 NPN (IS=10.1F NF=1 BF=78 VAF=76.4 IKF=60M ISE=13P NE=2 BR=4 NR=1 VAR=20 IKR=90M RE=.515 RB=2.06 RC=.206 XTB=1.5 CJE=17.6P VJE=1.1 MJE=.5 CJC=5.68P VJC=.3 MJC=.3 TF=324P TR=225N)
.MODEL MPS2712 NPN (IS=10.1F NF=1 BF=195 VAF=76.4 IKF=60M ISE=5.2P NE=2 BR=4 NR=1 VAR=20 IKR=90M RE=.515 RB=2.06 RC=.206 XTB=1.5 CJE=17.6P VJE=1.1 MJE=.5 CJC=5.68P VJC=.3 MJC=.3 TF=324P TR=225N)
.MODEL MPS2713 NPN (IS=20.3F NF=1 BF=78 VAF=76.4 IKF=.12 ISE=26P NE=2 BR=4 NR=1 VAR=20 IKR=.18 RE=.257 RB=1.03 RC=.103 XTB=1.5 CJE=22.3P VJE=1.1 MJE=.5 CJC=7.22P VJC=.3 MJC=.3 TF=636P TR=442N)
.MODEL MPS2714 NPN (IS=20.3F NF=1 BF=195 VAF=76.4 IKF=.12 ISE=10.4P NE=2 BR=4 NR=1 VAR=20 IKR=.18 RE=.257 RB=1.03 RC=.103 XTB=1.5 CJE=22.3P VJE=1.1 MJE=.5 CJC=7.22P VJC=.3 MJC=.3 TF=636P TR=442N)
.MODEL MPS3646 NPN (IS=30.4F NF=1 BF=78 VAF=69.7 IKF=.18 ISE=39P NE=2 BR=4 NR=1 VAR=20 IKR=.27 RE=1.21 RB=4.86 RC=.486 XTB=1.5 CJE=10.8P VJE=1.1 MJE=.5 CJC=11.8P VJC=.3 MJC=.3 TF=397P TR=276N)
.MODEL MPS3904 NPN (IS=4.72F NF=1 BF=226 VAF=113 IKF=80M ISE=2.03P NE=2 BR=4 NR=1 VAR=24 IKR=.12 RE=1.81 RB=7.26 RC=.726 XTB=1.5 CJE=7.6P VJE=1.1 MJE=.5 CJC=5.68P VJC=.3 MJC=.3 TF=636P TR=850N)
.MODEL MPS5179 NPN (IS=5.07F NF=1 BF=195 VAF=62.3 IKF=30M ISE=2.6P NE=2 BR=4 NR=1 VAR=10 IKR=45M RE=1.03 RB=4.12 RC=.412 XTB=1.5 CJE=8.95P VJE=1.1 MJE=.5 CJC=2.89P VJC=.3 MJC=.3 TF=106P TR=73.7N)
.MODEL MPS6521 NPN (IS=10.1F NF=1 BF=585 VAF=90 IKF=60M ISE=1.73P NE=2 BR=4 NR=1 VAR=16 IKR=90M RE=3.63 RB=14.5 RC=1.45 XTB=1.5 CJE=31.3P VJE=1.1 MJE=.5 CJC=10.1P VJC=.3 MJC=.3 TF=324P TR=225N)
.MODEL MPS6595 NPN (IS=5.07F NF=1 BF=234 VAF=62.3 IKF=30M ISE=2.16P NE=2 BR=4 NR=1 VAR=12 IKR=45M RE=1.03 RB=4.12 RC=.412 XTB=1.5 CJE=11.6P VJE=1.1 MJE=.5 CJC=3.75P VJC=.3 MJC=.3 TF=106P TR=73.7N)
.MODEL MPS6602 NPN (IS=101F NF=1 BF=273 VAF=113 IKF=.6 ISE=37.1P NE=2 BR=4 NR=1 VAR=16 IKR=.9 RE=.281 RB=1.12 RC=.112 XTB=1.5 CJE=80.1P VJE=1.1 MJE=.5 CJC=17.3P VJC=.3 MJC=.3 TF=757P TR=510N)
.MODEL MPS8099 NPN (IS=9.73F NF=1 BF=1.33K VAF=161 IKF=.16 ISE=10.9P NE=2 BR=4 NR=1 VAR=20 IKR=.24 RE=.257 RB=1.03 RC=.103 XTB=1.5 CJE=22.1P VJE=1.1 MJE=.5 CJC=7.57P VJC=.3 MJC=.3 TF=623P TR=1.53U)
.MODEL MPSA06 NPN (IS=50.7F NF=1 BF=286 VAF=161 IKF=.3 ISE=17.7P NE=2 BR=4 NR=1 VAR=16 IKR=.45 RE=.103 RB=.412 RC=41.2M XTB=1.5 CJE=58.7P VJE=1.1 MJE=.5 CJC=18.9P VJC=.3 MJC=.3 TF=725P TR=504N)
.MODEL MPSA17 NPN (IS=28.7F NF=1 BF=630 VAF=113 IKF=40M ISE=4.71P NE=2 BR=4 NR=1 VAR=60 IKR=60M RE=4.81 RB=19.2 RC=1.92 XTB=1.5 CJE=17.6P VJE=1.1 MJE=.5 CJC=5.68P VJC=.3 MJC=.3 TF=1.27N TR=884N)
.MODEL MPSA18 NPN (IS=20.3F NF=1 BF=1.43K VAF=120 IKF=.12 ISE=1.41P NE=2 BR=4 NR=1 VAR=26 IKR=.18 RE=.465 RB=1.86 RC=.186 XTB=1.5 CJE=7.87P VJE=1.1 MJE=.5 CJC=5.2P VJC=.3 MJC=.3 TF=353P TR=245N)
.MODEL MPSA20 NPN (IS=1.8E-14 BF=400 NF=0.9955 VAF=80 IKF=0.14 ISE=5E-14 NE=1.46 BR=35.5 NR=1.005 VAR=12.5 IKR=0.03 ISC=1.72E-13 NC=1.27 RB=0.56 RE=0.6 RC=0.25 CJE=1.3E-11 TF=6.4E-10 CJC=4E-12 VJC=0.54 TR=5.072E-8 )
.MODEL MPSA44 NPN (IS=141F NF=1 BF=130 VAF=360 IKF=.18 ISE=50.4P NE=2 BR=4 NR=1 VAR=2.4 IKR=.27 RE=1.77 RB=7.09 RC=.709 XTB=1.5 CJE=111P VJE=1.1 MJE=.5 CJC=17.9P VJC=.3 MJC=.3 TF=795P TR=552N)
.MODEL MPSH20 NPN (IS=10.1F NF=1 BF=130 VAF=98.6 IKF=60M ISE=7.8P NE=2 BR=4 NR=1 VAR=16 IKR=90M RE=.515 RB=2.06 RC=.206 XTB=1.5 CJE=2.17P VJE=1.1 MJE=.5 CJC=1.65P VJC=.3 MJC=.3 TF=256P TR=178N)
.MODEL MPSW01A NPN (IS=18.1F NF=1 BF=273 VAF=113 IKF=.6 ISE=15.7P NE=2 BR=4 NR=1 VAR=20 IKR=.9 RE=96.5M RB=.386 RC=38.6M XTB=1.5 CJE=78.7P VJE=1.1 MJE=.5 CJC=17.3P VJC=.3 MJC=.3 TF=757P TR=526N)
.MODEL MPSW06 NPN (IS=50.7F NF=1 BF=286 VAF=161 IKF=.3 ISE=17.7P NE=2 BR=4 NR=1 VAR=16 IKR=.45 RE=.103 RB=.412 RC=41.2M XTB=1.5 CJE=58.7P VJE=1.1 MJE=.5 CJC=18.9P VJC=.3 MJC=.3 TF=725P TR=504N)
.MODEL MSC1621 NPN (IS=20.3F NF=1 BF=130 VAF=80.5 IKF=.12 ISE=15.6P NE=2 BR=4 NR=1 VAR=20 IKR=.18 RE=.257 RB=1.03 RC=.103 XTB=1.5 CJE=27.8P VJE=1.1 MJE=.5 CJC=8.99P VJC=.3 MJC=.3 TF=458P TR=318N)
.MODEL MSC2295B NPN (IS=3.04F NF=1 BF=143 VAF=80.5 IKF=18M ISE=2.12P NE=2 BR=4 NR=1 VAR=20 IKR=27M RE=1.71 RB=6.87 RC=.687 XTB=1.5 CJE=10.4P VJE=1.1 MJE=.5 CJC=3.36P VJC=.3 MJC=.3 TF=530P TR=368N)
.MODEL MSC2295C NPN (IS=3.04F NF=1 BF=234 VAF=80.5 IKF=18M ISE=1.3P NE=2 BR=4 NR=1 VAR=20 IKR=27M RE=1.71 RB=6.87 RC=.687 XTB=1.5 CJE=10.4P VJE=1.1 MJE=.5 CJC=3.36P VJC=.3 MJC=.3 TF=530P TR=368N)
.MODEL MSC2404C NPN (IS=1.52F NF=1 BF=143 VAF=80.5 IKF=9M ISE=1.06P NE=2 BR=4 NR=1 VAR=12 IKR=13.5M RE=3.43 RB=13.7 RC=1.37 XTB=1.5 CJE=8.88P VJE=1.1 MJE=.5 CJC=2.86P VJC=.3 MJC=.3 TF=125P TR=87.3N)
.MODEL MSC3130 NPN (IS=5.07F NF=1 BF=325 VAF=56.9 IKF=30M ISE=1.56P NE=2 BR=4 NR=1 VAR=12 IKR=45M RE=1.03 RB=4.12 RC=.412 XTB=1.5 CJE=12.4P VJE=1.1 MJE=.5 CJC=4.02P VJC=.3 MJC=.3 TF=79.5P TR=55.2N)
.MODEL MSD601R NPN (IS=10.1F NF=1 BF=390 VAF=90 IKF=60M ISE=2.6P NE=2 BR=4 NR=1 VAR=28 IKR=90M RE=.815 RB=3.26 RC=.326 XTB=1.5 CJE=17.6P VJE=1.1 MJE=.5 CJC=5.68P VJC=.3 MJC=.3 TF=324P TR=225N)
.MODEL MSD602R NPN (IS=50.7F NF=1 BF=260 VAF=90 IKF=.3 ISE=19.5P NE=2 BR=4 NR=1 VAR=28 IKR=.45 RE=.438 RB=1.75 RC=.175 XTB=1.5 CJE=58.7P VJE=1.1 MJE=.5 CJC=18.9P VJC=.3 MJC=.3 TF=725P TR=504N)
.MODEL MSD1328R NPN (IS=50.7F NF=1 BF=357 VAF=80.5 IKF=.3 ISE=14.1P NE=2 BR=4 NR=1 VAR=48 IKR=.45 RE=.263 RB=1.05 RC=.105 XTB=1.5 CJE=58.7P VJE=1.1 MJE=.5 CJC=18.9P VJC=.3 MJC=.3 TF=725P TR=504N)
.MODEL ZTX107 NPN (IS=1.8E-14 BF=400 NF=0.9955 VAF=80 IKF=0.14 ISE=5E-14 NE=1.46 BR=35.5 NR=1.005 VAR=12.5 IKR=0.03 ISC=1.72E-13 NC=1.27 RB=0.56 RE=0.6 RC=0.25 CJE=1.3E-11 TF=6.4E-10 CJC=4E-12 VJC=0.54 TR=5.072E-8 )
.MODEL ZTX107B NPN (IS=1.8E-14 BF=400 NF=0.9955 VAF=80 IKF=0.14 ISE=5E-14 NE=1.46 BR=35.5 NR=1.005 VAR=12.5 IKR=0.03 ISC=1.72E-13 NC=1.27 RB=0.56 RE=0.6 RC=0.25 CJE=1.3E-11 TF=6.4E-10 CJC=4E-12 VJC=0.54 TR=5.072E-8 )
.MODEL ZTX108 NPN (IS=1.8E-14 BF=400 NF=0.9955 VAF=80 IKF=0.14 ISE=5E-14 NE=1.46 BR=35.5 NR=1.005 VAR=12.5 IKR=0.03 ISC=1.72E-13 NC=1.27 RB=0.56 RE=0.6 RC=0.25 CJE=1.3E-11 TF=6.4E-10 CJC=4E-12 VJC=0.54 TR=5.072E-8 )
.MODEL ZTX108B NPN (IS=1.8E-14 BF=400 NF=0.9955 VAF=80 IKF=0.14 ISE=5E-14 NE=1.46 BR=35.5 NR=1.005 VAR=12.5 IKR=0.03 ISC=1.72E-13 NC=1.27 RB=0.56 RE=0.6 RC=0.25 CJE=1.3E-11 TF=6.4E-10 CJC=4E-12 VJC=0.54 TR=5.072E-8 )
.MODEL ZTX109 NPN (IS=1.8E-14 BF=400 NF=0.9955 VAF=80 IKF=0.14 ISE=5E-14 NE=1.46 BR=35.5 NR=1.005 VAR=12.5 IKR=0.03 ISC=1.72E-13 NC=1.27 RB=0.56 RE=0.6 RC=0.25 CJE=1.3E-11 TF=6.4E-10 CJC=4E-12 VJC=0.54 TR=5.072E-8 )
.MODEL ZTX109B NPN (IS=1.8E-14 BF=400 NF=0.9955 VAF=80 IKF=0.14 ISE=5E-14 NE=1.46 BR=35.5 NR=1.005 VAR=12.5 IKR=0.03 ISC=1.72E-13 NC=1.27 RB=0.56 RE=0.6 RC=0.25 CJE=1.3E-11 TF=6.4E-10 CJC=4E-12 VJC=0.54 TR=5.072E-8 )
.MODEL ZTX237 NPN (IS=1.8E-14 BF=400 NF=0.9955 VAF=80 IKF=0.14 ISE=5E-14 NE=1.46 BR=35.5 NR=1.005 VAR=12.5 IKR=0.03 ISC=1.72E-13 NC=1.27 RB=0.56 RE=0.6 RC=0.25 CJE=1.3E-11 TF=6.4E-10 CJC=4E-12 VJC=0.54 TR=5.072E-8 )
.MODEL ZTX237B NPN (IS=1.8E-14 BF=400 NF=0.9955 VAF=80 IKF=0.14 ISE=5E-14 NE=1.46 BR=35.5 NR=1.005 VAR=12.5 IKR=0.03 ISC=1.72E-13 NC=1.27 RB=0.56 RE=0.6 RC=0.25 CJE=1.3E-11 TF=6.4E-10 CJC=4E-12 VJC=0.54 TR=5.072E-8 )
.MODEL ZTX238 NPN (IS=1.8E-14 BF=400 NF=0.9955 VAF=80 IKF=0.14 ISE=5E-14 NE=1.46 BR=35.5 NR=1.005 VAR=12.5 IKR=0.03 ISC=1.72E-13 NC=1.27 RB=0.56 RE=0.6 RC=0.25 CJE=1.3E-11 TF=6.4E-10 CJC=4E-12 VJC=0.54 TR=5.072E-8 )
.MODEL ZTX238B NPN (IS=1.8E-14 BF=400 NF=0.9955 VAF=80 IKF=0.14 ISE=5E-14 NE=1.46 BR=35.5 NR=1.005 VAR=12.5 IKR=0.03 ISC=1.72E-13 NC=1.27 RB=0.56 RE=0.6 RC=0.25 CJE=1.3E-11 TF=6.4E-10 CJC=4E-12 VJC=0.54 TR=5.072E-8 )
.MODEL ZTX239 NPN (IS=1.8E-14 BF=400 NF=0.9955 VAF=80 IKF=0.14 ISE=5E-14 NE=1.46 BR=35.5 NR=1.005 VAR=12.5 IKR=0.03 ISC=1.72E-13 NC=1.27 RB=0.56 RE=0.6 RC=0.25 CJE=1.3E-11 TF=6.4E-10 CJC=4E-12 VJC=0.54 TR=5.072E-8 )
.MODEL ZTX239B NPN (IS=1.8E-14 BF=400 NF=0.9955 VAF=80 IKF=0.14 ISE=5E-14 NE=1.46 BR=35.5 NR=1.005 VAR=12.5 IKR=0.03 ISC=1.72E-13 NC=1.27 RB=0.56 RE=0.6 RC=0.25 CJE=1.3E-11 TF=6.4E-10 CJC=4E-12 VJC=0.54 TR=5.072E-8 )
.MODEL ZTX320 NPN (IS=1.73E-13 BF=200 VAF=90 IKF=0.0088 ISE=2.41E-10 NE=1.701 BR=3.124 NR=0.9705 VAR=9.7 IKR=0.02 ISC=8.31E-13 NC=1.112 RB=17 RE=2.13 RC=30 CJE=2.27E-12 TF=2E-10 CJC=1.2E-12 VJC=0.415 MJC=0.145 TR=1E-9 )
.MODEL ZTX321 NPN (IS=1.73E-13 BF=200 VAF=90 IKF=0.0088 ISE=2.41E-10 NE=1.701 BR=3.124 NR=0.9705 VAR=9.7 IKR=0.02 ISC=8.31E-13 NC=1.112 RB=17 RE=2.13 RC=30 CJE=2.27E-12 TF=2E-10 CJC=1.2E-12 VJC=0.415 MJC=0.145 TR=1E-9 )
.MODEL ZTX337A NPN (IS=3.94E-14 BF=175 VAF=109.4 IKF=0.8 ISE=7.4E-15 NE=1.3 BR=20.5 NR=0.974 VAR=14.25 IKR=0.1 ISC=3.16E-13 NC=1.2 RB=1.1 RE=0.1259 RC=0.0539 CJE=6.3E-11 TF=7.5E-10 CJC=1.58E-11 VJC=0.505 MJC=0.39 TR=8.5E-8 )
.MODEL ZTX338A NPN (IS=3.94E-14 BF=175 VAF=109.4 IKF=0.8 ISE=7.4E-15 NE=1.3 BR=20.5 NR=0.974 VAR=14.25 IKR=0.1 ISC=3.16E-13 NC=1.2 RB=1.1 RE=0.1259 RC=0.0539 CJE=6.3E-11 TF=7.5E-10 CJC=1.58E-11 VJC=0.505 MJC=0.39 TR=8.5E-8 )
.MODEL ZTX450 NPN (IS=3.94E-14 BF=175 VAF=109.4 IKF=0.8 ISE=7.4E-15 NE=1.3 BR=20.5 NR=0.974 VAR=14.25 IKR=0.1 ISC=3.16E-13 NC=1.2 RB=1.1 RE=0.1259 RC=0.0539 CJE=6.3E-11 TF=7.5E-10 CJC=1.58E-11 VJC=0.505 MJC=0.39 TR=8.5E-8 )
.MODEL ZTX454 NPN (IS=5.6E-14 BF=260 NF=0.992 VAF=660 IKF=0.155 ISE=3.1E-14 NE=1.25 BR=24 NR=0.999 VAR=6 IKR=0.114 ISC=1.41E-13 NC=1.13 RB=1.1 RE=0.161 RC=0.0339 CJE=5.35E-11 TF=7.5E-10 CJC=1.16E-11 VJC=0.505 MJC=0.455 TR=1E-7 )
.MODEL ZTX455 NPN (IS=5.6E-14 BF=260 NF=0.992 VAF=660 IKF=0.155 ISE=3.1E-14 NE=1.25 BR=24 NR=0.999 VAR=6 IKR=0.114 ISC=1.41E-13 NC=1.13 RB=1.1 RE=0.161 RC=0.0339 CJE=5.35E-11 TF=7.5E-10 CJC=1.16E-11 VJC=0.505 MJC=0.455 TR=1E-7 )
.MODEL ZTX458 NPN (IS=5.33E-14 BF=190 NF=0.992 VAF=1050 IKF=0.075 ISE=2.1E-14 NE=1.385 BR=16.3 NR=1.05 VAR=99 IKR=1.8 ISC=6.42E-12 NC=1.25 RB=0.5 RE=0.224 RC=0.134 CJE=1.22E-10 TF=1.66E-9 CJC=8.5E-12 VJC=0.4332 MJC=0.3966 TR=8E-6 )
.MODEL ZTX649 NPN (IS=3E-13 BF=225 VAF=80 IKF=2.8 ISE=1.1E-13 NE=1.37 BR=110 NR=0.972 VAR=28 IKR=0.8 ISC=6.5E-13 NC=1.372 RB=0.3 RE=0.063 RC=0.07 CJE=3.25E-10 TF=1E-9 CJC=7E-11 TR=1E-8 )
.MODEL ZTX650 NPN (IS=2.22E-13 BF=230 NF=0.9956 VAF=100 IKF=2 ISE=2.9E-14 NE=1.35 BR=56 NR=0.995 VAR=30 IKR=1 ISC=2.97E-13 NC=1.321 RB=0.04 RE=0.075 RC=0.069 CJE=3.18E-10 TF=7.7E-10 CJC=5.1E-11 VJC=0.595 MJC=0.42 TR=2.7E-8 )
.MODEL ZTX651 NPN (IS=2.22E-13 BF=230 NF=0.9956 VAF=100 IKF=2 ISE=2.9E-14 NE=1.35 BR=56 NR=0.995 VAR=30 IKR=1 ISC=2.97E-13 NC=1.321 RB=0.04 RE=0.075 RC=0.069 CJE=3.18E-10 TF=7.7E-10 CJC=5.1E-11 VJC=0.595 MJC=0.42 TR=2.7E-8 )
.MODEL ZTX657 NPN (IS=1.88E-13 BF=120 NF=1.003 VAF=1400 IKF=0.22 ISE=2.1E-14 NE=1.28 BR=8.3 NR=1.005 VAR=50 IKR=1.1 ISC=5E-13 NC=1.8 RB=0.1 RE=0.095 RC=0.146 CJE=3.7E-10 TF=1.77E-9 CJC=2.4E-11 VJC=0.525 MJC=0.48 TR=8E-7 )
.MODEL ZTX658 NPN (IS=2.3E-13 BF=170 VAF=1367 IKF=0.165 ISE=6.14E-14 NE=1.39 BR=13 NR=1.002 VAR=59 IKR=0.85 ISC=9.19E-15 NC=1.032 RB=0.08 RE=0.136 RC=0.181 CJE=3.3E-10 TF=2.08E-9 CJC=2.25E-11 VJC=0.425 MJC=0.44 TR=2.3E-7 )
.MODEL ZTX688B NPN (IS=1.09E-12 BF=1180 NF=0.9935 VAF=25 IKF=5.2 ISE=1.3E-13 NE=1.35 BR=790 NR=0.992 VAR=5 IKR=0.5 ISC=1.74E-13 NC=1.399 RB=0.3 RE=0.036 RC=0.034 CJE=2.8E-10 TF=9.3E-10 CJC=1.04E-10 VJC=0.46 MJC=0.29 TR=1.05E-9 )
.MODEL ZTX689B NPN (IS=1.8E-12 BF=1850 NF=0.994 VAF=24 IKF=3.2 ISE=2.18E-13 NE=1.345 BR=370 NR=0.996 VAR=4 IKR=0.8 ISC=3.6E-13 NC=1.26 RB=0.2 RE=0.035 RC=0.036 CJE=2.48E-10 TF=7.2E-10 CJC=7.4E-11 VJC=0.485 MJC=0.35 TR=2.07E-9 )
.MODEL ZTX690B NPN (IS=2.505E-12 BF=1360 NF=1.006 VAF=35 IKF=1.3 ISE=2.4E-13 NE=1.38 BR=125 NR=1.001 VAR=8 IKR=1 ISC=4.35E-13 NC=1.213 RB=0.2 RE=0.043 RC=0.04 CJE=2.47E-10 TF=8.51E-10 CJC=5.43E-11 VJC=0.765 MJC=0.475 TR=1.57E-8 )
.MODEL ZTX692B NPN (IS=1.87E-12 BF=1400 NF=0.9983 VAF=29 IKF=0.73 ISE=2.1E-13 NE=1.378 BR=68 NR=0.997 VAR=12 IKR=0.55 ISC=4.4E-13 NC=1.14 RB=0.2 RE=0.05 RC=0.048 CJE=2.33E-10 TF=7.7E-10 CJC=4.25E-11 VJC=0.625 MJC=0.475 TR=3.9E-8 )
.MODEL ZTX694B NPN (IS=1.59E-12 BF=1009 NF=1.001 VAF=45 IKF=0.26 ISE=2.53E-13 NE=1.445 BR=40 VAR=30 IKR=1 ISC=3.26E-13 NC=1.075 RB=0.2 RE=0.065 RC=0.075 CJE=2.58E-10 TF=7.63E-10 CJC=3.55E-11 VJC=0.515 MJC=0.465 TR=1.3E-7 )
.MODEL ZTX696B NPN (IS=9.85E-13 BF=705 NF=0.999 VAF=235 IKF=0.145 ISE=8.1E-14 NE=1.36 BR=20 NR=1.002 VAR=26 IKR=0.8 ISC=6.6E-13 NC=1.15 RB=0.07 RE=0.125 RC=0.098 CJE=2.7E-10 TF=1.301E-9 CJC=2.54E-11 VJC=0.445 MJC=0.47 TR=6.9E-7 )
.MODEL ZXTN26070 NPN (IS=300E-15 NF=1 BF=350 ISE=60E-15 NE=1.35 BR=16 ISC=400E-15 NC=1.25 NR=1 CJC=30.37E-12 MJC=0.33 VJC=0.5 CJE=160.7E-12 MJE=0.37 VJE=0.75 RC=93.2m RE=30m RB=2 TF=.8n TR=80n)
.MODEL DXT2011P5 NPN (IS=6E-13 NF=1 BF=240 IKF=10 VAF=500 ISE=1.8E-13 NE=1.42 NR=1 BR=40 IKR=1 VAR=28 ISC=8E-13 NC=1.18 RC=0.007 RB=0.15 RE=0.019 CJC=84E-12 MJC=0.35 VJC=0.43 CJE=700E-12 MJE=0.37 VJE=0.78 TF=0.85E-9 TR=75E-9 XTB=1.4 TRC1=0.003 TRB1=0.003 TRE1=0.003)
.MODEL FMMT493 NPN (IS =6E-14 NF =0.99 BF =250 IKF=0.9 NK=0.7 VAF=270 ISE=1E-14 NE =1.2 NR =0.98 BR =30 IKR=0.5 VAR=27 ISC=1.2e-13 NC =1.2 RB =0.2 RE =0.08 RC =0.08 RCO=5 GAMMA=5E-9 CJC=15.9E-12 MJC=0.4 VJC=0.51 CJE=108E-12 MJE=0.35 VJE=0.7 TF =0.8E-9 TR =55e-9 XTB=1.4 QUASIMOD=1)
