.MODEL 2N3370 NJF VTO=-0.65 BETA=0.77m LAMBDA=9m RD=1 RS=1 CGS=2.9p CGD=2.8p PB=0.5 IS=115f AF=1 FC=0.5 BETATCE=-0.5 N=1 NR=2 XTI=3 VTOTC=-2.5m ALPHA=1u VK=1 ISR=10f KF=0.001f M=0.5 B=1 NLEV=2 
.MODEL 2N3458 NJF VTO=-3.1 BETA=0.7m LAMBDA=6m RD=1 RS=1 CGS=2.9p CGD=2.8p PB=0.5 IS=115f AF=1 FC=0.5 BETATCE=-0.5 N=1 NR=2 XTI=3 VTOTC=-2.5m ALPHA=1u VK=1 ISR=10f KF=0.001f M=0.5 B=1 NLEV=2 
.MODEL 2N3459 NJF VTO=-1.4 BETA=1.3m LAMBDA=4m RD=1 RS=1 CGS=2.9p CGD=2.8p PB=0.5 IS=115f AF=1 FC=0.5 BETATCE=-0.5 N=1 NR=2 XTI=3 VTOTC=-2.5m ALPHA=1u VK=1 ISR=10f KF=0.001f M=0.5 B=1 NLEV=2 
.MODEL 2N3684 NJF VTO=-3.2 BETA=0.35m LAMBDA=12m RD=1 RS=1 CGS=2.1p CGD=2p PB=0.5 IS=115f AF=1 FC=0.5 BETATCE=-0.5 N=1 NR=2 XTI=3 VTOTC=-2.5m ALPHA=1u VK=1 ISR=10f KF=0.001f M=0.5 B=1 NLEV=2 
.MODEL 2N3685 NJF VTO=-1.7 BETA=0.54m LAMBDA=5.8m RD=1 RS=1 CGS=2.1p CGD=2p PB=0.5 IS=115f AF=1 FC=0.5 BETATCE=-0.5 N=1 NR=2 XTI=3 VTOTC=-2.5m ALPHA=1u VK=1 ISR=10f KF=0.001f M=0.5 B=1 NLEV=2 
.MODEL 2N3686 NJF VTO=-0.96 BETA=0.72m LAMBDA=2.3m RD=1 RS=1 CGS=2.1p CGD=2p PB=0.5 IS=115f AF=1 FC=0.5 BETATCE=-0.5 N=1 NR=2 XTI=3 VTOTC=-2.5m ALPHA=1u VK=1 ISR=10f KF=0.001f M=0.5 B=1 NLEV=2 
.MODEL 2N3687 NJF VTO=-0.51 BETA=0.84m LAMBDA=1.2m RD=1 RS=1 CGS=2.1p CGD=2p PB=0.5 IS=115f AF=1 FC=0.5 BETATCE=-0.5 N=1 NR=2 XTI=3 VTOTC=-2.5m ALPHA=1u VK=1 ISR=10f KF=0.001f M=0.5 B=1 NLEV=2 
.MODEL 2N3819 NJF VTO=-3 BETA=1.3m LAMBDA=2.3m RD=1 RS=1 CGS=2.4p CGD=1.6p PB=1 IS=33.6f AF=1 FC=0.5 BETATCE=-0.5 N=1 NR=2 XTI=3 VTOTC=-2.5m ALPHA=310u VK=240 ISR=320f KF=0.0099f M=0.36 B=1 NLEV=2 
.MODEL 2N3821 NJF VTO=-1.2 BETA=1.7m LAMBDA=1.8m RS=56 CGS=6p CGD=6p PB=1 IS=10f AF=1 FC=0.5 BETATCE=-0.5 N=1 NR=2 XTI=3 VTOTC=-2.5m ALPHA=1u VK=1 ISR=10f KF=0.001f M=0.5 B=1 NLEV=2 
.MODEL 2N3821 NJF VTO=-0.85 BETA=1.5m LAMBDA=2m RD=1 RS=1 CGS=4.6p CGD=4p PB=0.5 IS=181f AF=1 FC=0.5 BETATCE=-0.5 N=1 NR=2 XTI=3 VTOTC=-2.5m ALPHA=1u VK=1 ISR=10f KF=0.001f M=0.5 B=1 NLEV=2 
.MODEL 2N3822 NJF VTO=-2 BETA=1.1m LAMBDA=4.1m RD=1 RS=1 CGS=4.6p CGD=4p PB=0.5 IS=181f AF=1 FC=0.5 BETATCE=-0.5 N=1 NR=2 XTI=3 VTOTC=-2.5m ALPHA=1u VK=1 ISR=10f KF=0.001f M=0.5 B=1 NLEV=2 
.MODEL 2N3823 NJF VTO=-3.3 BETA=1.2m LAMBDA=4m RD=1 RS=1 CGS=2.4p CGD=1.6p PB=1 IS=33.6f AF=1 FC=0.5 BETATCE=-0.5 N=1 NR=2 XTI=3 VTOTC=-2.5m ALPHA=1u VK=1 ISR=10f KF=0.001f M=0.5 B=1 NLEV=2 
.MODEL 2N3824 NJF VTO=-2.1 BETA=0.44m LAMBDA=5.3m RD=1 RS=1 CGS=4.6p CGD=4p PB=0.5 IS=181f AF=1 FC=0.5 BETATCE=-0.5 N=1 NR=2 XTI=3 VTOTC=-2.5m ALPHA=1u VK=1 ISR=10f KF=0.001f M=0.5 B=1 NLEV=2 
.MODEL 2N3921 NJF VTO=-1.8 BETA=1.6m LAMBDA=4m RD=1 RS=1 CGS=4.4p CGD=8.8p PB=1 IS=24.6f AF=1 FC=0.5 BETATCE=-0.5 N=1 NR=2 XTI=3 VTOTC=-2.5m ALPHA=1u VK=1 ISR=10f KF=0.001f M=0.5 B=1 NLEV=2 
.MODEL 2N3954 NJF VTO=-2 BETA=0.77m LAMBDA=4.3m RD=1 RS=1 CGS=0.86p CGD=1.7p PB=1 IS=24.6f AF=1 FC=0.5 BETATCE=-0.5 N=1 NR=2 XTI=3 VTOTC=-2.5m ALPHA=1u VK=1 ISR=10f KF=0.001f M=0.5 B=1 NLEV=2 
.MODEL 2N3966 NJF VTO=-4.9 BETA=0.65m LAMBDA=15m RD=1 RS=1 CGS=2.4p CGD=1.6p PB=1 IS=33.6f AF=1 FC=0.5 BETATCE=-0.5 N=1 NR=2 XTI=3 VTOTC=-2.5m ALPHA=1u VK=1 ISR=10f KF=0.001f M=0.5 B=1 NLEV=2 
.MODEL 2N3967 NJF VTO=-2.5 BETA=0.75m LAMBDA=3.7m RD=1 RS=1 CGS=3.7p CGD=4p PB=0.5 IS=181f AF=1 FC=0.5 BETATCE=-0.5 N=1 NR=2 XTI=3 VTOTC=-2.5m ALPHA=1u VK=1 ISR=10f KF=0.001f M=0.5 B=1 NLEV=2 
.MODEL 2N3970 NJF VTO=-4.5 BETA=4m LAMBDA=23m RD=1 RS=1 CGS=9.3p CGD=10p PB=1 IS=205f AF=1 FC=0.5 BETATCE=-0.5 N=1 NR=2 XTI=3 VTOTC=-2.5m ALPHA=1u VK=1 ISR=10f KF=0.001f M=0.5 B=1 NLEV=2 
.MODEL 2N3971 NJF VTO=-2.6 BETA=6.3m LAMBDA=13m RD=1 RS=1 CGS=9.3p CGD=10p PB=1 IS=205f AF=1 FC=0.5 BETATCE=-0.5 N=1 NR=2 XTI=3 VTOTC=-2.5m ALPHA=1u VK=1 ISR=10f KF=0.001f M=0.5 B=1 NLEV=2 
.MODEL 2N3972 NJF VTO=-1.4 BETA=9.1m LAMBDA=6m RD=1 RS=1 CGS=9.3p CGD=10p PB=1 IS=205f AF=1 FC=0.5 BETATCE=-0.5 N=1 NR=2 XTI=3 VTOTC=-2.5m ALPHA=1u VK=1 ISR=10f KF=0.001f M=0.5 B=1 NLEV=2 
.MODEL 2N4084 NJF VTO=-1.8 BETA=1.6m LAMBDA=4m RD=1 RS=1 CGS=4.4p CGD=8.8p PB=1 IS=24.6f AF=1 FC=0.5 BETATCE=-0.5 N=1 NR=2 XTI=3 VTOTC=-2.5m ALPHA=1u VK=1 ISR=10f KF=0.001f M=0.5 B=1 NLEV=2 
.MODEL 2N4091 NJF VTO=-8 BETA=1.6m LAMBDA=10m RD=0.83 RS=0.83 CGS=8.8p CGD=14p PB=0.77 IS=0.655f AF=1 FC=0.5 BETATCE=-0.5 N=1 NR=2 XTI=3 VTOTC=-2.5m ALPHA=1u VK=1 ISR=10f KF=0.001f M=0.5 B=1 NLEV=2 
.MODEL 2N4092 NJF VTO=-2.2 BETA=4.2m LAMBDA=64m RD=1.1 RS=1.1 CGS=8.3p CGD=8.3p PB=0.76 IS=0.491f AF=1 FC=0.5 BETATCE=-0.5 N=1 NR=2 XTI=3 VTOTC=-2.5m ALPHA=1u VK=1 ISR=10f KF=0.001f M=0.5 B=1 NLEV=2 
.MODEL 2N4093 NJF VTO=-1.4 BETA=6.9m LAMBDA=40m RD=3.5 RS=3.5 CGS=8p CGD=8.3p PB=0.73 IS=0.692f AF=1 FC=0.5 BETATCE=-0.5 N=1 NR=2 XTI=3 VTOTC=-2.5m ALPHA=1u VK=1 ISR=10f KF=0.001f M=0.5 B=1 NLEV=2 
.MODEL 2N4117A NJF VTO=-1 BETA=0.058m LAMBDA=0.9m RS=500 CGS=1.1p CGD=1.1p PB=1 IS=10f AF=1 FC=0.5 BETATCE=-0.5 N=1 NR=2 XTI=3 VTOTC=-2.5m ALPHA=1u VK=1 ISR=10f KF=0.001f M=0.5 B=1 NLEV=2 
.MODEL 2N4117A NJF VTO=-1.2 BETA=0.56m LAMBDA=7.5m RD=1 RS=1 CGS=4.5p CGD=4.5p PB=1 IS=4.48f AF=1 FC=0.5 BETATCE=-0.5 N=1 NR=2 XTI=3 VTOTC=-2.5m ALPHA=18000u VK=350 ISR=44f KF=31000f M=0.44 B=1 NLEV=2 
.MODEL 2N4117A NJF VTO=-1.1 BETA=0.049m LAMBDA=13m RD=1 RS=1 CGS=4.9p CGD=3.9p PB=1 IS=5.26f AF=1 FC=0.5 BETATCE=-0.5 N=1 NR=2 XTI=3 VTOTC=-2.5m ALPHA=1u VK=1 ISR=10f KF=0.001f M=0.5 B=1 NLEV=2 
.MODEL 2N4117 NJF VTO=-1.2 BETA=0.033m LAMBDA=13m RD=1 RS=1 CGS=4.9p CGD=3.9p PB=1 IS=5.26f AF=1 FC=0.5 BETATCE=-0.5 N=1 NR=2 XTI=3 VTOTC=-2.5m ALPHA=0.8u VK=90 ISR=51f KF=0.046f M=0.43 B=1 NLEV=2 
.MODEL 2N4117 NJF VTO=-1.2 BETA=0.033m LAMBDA=13m RD=1 RS=1 CGS=4.9p CGD=3.9p PB=1 IS=5.26f AF=1 FC=0.5 BETATCE=-0.5 N=1 NR=2 XTI=3 VTOTC=-2.5m ALPHA=1u VK=90 ISR=51f KF=46000f M=0.44 B=1 NLEV=2 
.MODEL 2N4118A NJF VTO=-1.7 BETA=0.044m LAMBDA=1.2m RS=1000 CGS=1.1p CGD=1.1p PB=1 IS=10f AF=1 FC=0.5 BETATCE=-0.5 N=1 NR=2 XTI=3 VTOTC=-2.5m ALPHA=1u VK=1 ISR=10f KF=0.001f M=0.5 B=1 NLEV=2 
.MODEL 2N4118A NJF VTO=-1.3 BETA=0.095m LAMBDA=7.5m RD=1 RS=1 CGS=4.5p CGD=4.5p PB=1 IS=4.48f AF=1 FC=0.5 BETATCE=-0.5 N=1 NR=2 XTI=3 VTOTC=-2.5m ALPHA=18000u VK=350 ISR=44f KF=77000f M=0.44 B=1 NLEV=2 
.MODEL 2N4118 NJF VTO=-1.7 BETA=0.053m LAMBDA=15m RD=1 RS=1 CGS=4.9p CGD=3.9p PB=1 IS=5.26f AF=1 FC=0.5 BETATCE=-0.5 N=1 NR=2 XTI=3 VTOTC=-2.5m ALPHA=0.8u VK=90 ISR=51f KF=0.077f M=0.43 B=1 NLEV=2 
.MODEL 2N4118 NJF VTO=-1.7 BETA=0.053m LAMBDA=15m RD=1 RS=1 CGS=4.9p CGD=3.9p PB=1 IS=5.26f AF=1 FC=0.5 BETATCE=-0.5 N=1 NR=2 XTI=3 VTOTC=-2.5m ALPHA=0.8u VK=90 ISR=51f KF=77000f M=0.44 B=1 NLEV=2 
.MODEL 2N4119A NJF VTO=-3.9 BETA=0.036m LAMBDA=1.5m RS=1800 CGS=1.1p CGD=1.1p PB=1 IS=10f AF=1 FC=0.5 BETATCE=-0.5 N=1 NR=2 XTI=3 VTOTC=-2.5m ALPHA=1u VK=1 ISR=10f KF=0.001f M=0.5 B=1 NLEV=2 
.MODEL 2N4119A NJF VTO=-4.5 BETA=0.022m LAMBDA=10m RD=1 RS=1 CGS=4.5p CGD=4.5p PB=1 IS=4.48f AF=1 FC=0.5 BETATCE=-0.5 N=1 NR=2 XTI=3 VTOTC=-2.5m ALPHA=18000u VK=350 ISR=44f KF=100000f M=0.44 B=1 NLEV=2 
.MODEL 2N4119 NJF VTO=-2.5 BETA=0.068m LAMBDA=19m RD=1 RS=1 CGS=4.9p CGD=3.9p PB=1 IS=5.26f AF=1 FC=0.5 BETATCE=-0.5 N=1 NR=2 XTI=3 VTOTC=-2.5m ALPHA=0.8u VK=90 ISR=51f KF=0.1f M=0.43 B=1 NLEV=2 
.MODEL 2N4119 NJF VTO=-2.5 BETA=0.068m LAMBDA=19m RD=1 RS=1 CGS=4.9p CGD=3.9p PB=1 IS=5.26f AF=1 FC=0.5 BETATCE=-0.5 N=1 NR=2 XTI=3 VTOTC=-2.5m ALPHA=0.8u VK=90 ISR=51f KF=100000f M=0.44 B=1 NLEV=2 
.MODEL 2N4220 NJF VTO=-1.2 BETA=0.82m LAMBDA=3.3m RD=1 RS=1 CGS=4.6p CGD=4p PB=0.5 IS=181f AF=1 FC=0.5 BETATCE=-0.5 N=1 NR=2 XTI=3 VTOTC=-2.5m ALPHA=1u VK=1 ISR=10f KF=0.001f M=0.5 B=1 NLEV=2 
.MODEL 2N4221 NJF VTO=-2.1 BETA=0.73m LAMBDA=4.2m RD=1 RS=1 CGS=4.6p CGD=4p PB=0.5 IS=181f AF=1 FC=0.5 BETATCE=-0.5 N=1 NR=2 XTI=3 VTOTC=-2.5m ALPHA=1u VK=1 ISR=10f KF=0.001f M=0.5 B=1 NLEV=2 
.MODEL 2N4222 NJF VTO=-4.1 BETA=0.44m LAMBDA=5.3m RD=1 RS=1 CGS=4.6p CGD=4p PB=0.5 IS=181f AF=1 FC=0.5 BETATCE=-0.5 N=1 NR=2 XTI=3 VTOTC=-2.5m ALPHA=1u VK=1 ISR=10f KF=0.001f M=0.5 B=1 NLEV=2 
.MODEL 2N4223 NJF VTO=-3.1 BETA=1m LAMBDA=5.5m RD=1 RS=1 CGS=2.4p CGD=1.6p PB=1 IS=33.6f AF=1 FC=0.5 BETATCE=-0.5 N=1 NR=2 XTI=3 VTOTC=-2.5m ALPHA=1u VK=1 ISR=10f KF=0.001f M=0.5 B=1 NLEV=2 
.MODEL 2N4338 NJF VTO=-0.66 BETA=0.78m LAMBDA=1.2m RD=1 RS=1 CGS=2.9p CGD=2.8p PB=0.5 IS=115f AF=1 FC=0.5 BETATCE=-0.5 N=1 NR=2 XTI=3 VTOTC=-2.5m ALPHA=510u VK=250 ISR=1100f KF=0.0029f M=0.23 B=1 NLEV=2 
.MODEL 2N4338 NJF VTO=-0.66 BETA=0.78m LAMBDA=1.2m RD=1 RS=1 CGS=2.9p CGD=2.8p PB=0.5 IS=115f AF=1 FC=0.5 BETATCE=-0.5 N=1 NR=2 XTI=3 VTOTC=-2.5m ALPHA=510u VK=250 ISR=1100f KF=29000f M=0.23 B=1 NLEV=2 
.MODEL 2N4339 NJF VTO=-1.1 BETA=1m LAMBDA=1.8m RS=51 CGS=7p CGD=3.5p PB=1 IS=10f AF=1 FC=0.5 BETATCE=-0.5 N=1 NR=2 XTI=3 VTOTC=-2.5m ALPHA=1u VK=1 ISR=10f KF=0.001f M=0.5 B=1 NLEV=2 
.MODEL 2N4339 NJF VTO=-1.2 BETA=0.56m LAMBDA=3.5m RD=1 RS=1 CGS=2.9p CGD=2.8p PB=0.5 IS=115f AF=1 FC=0.5 BETATCE=-0.5 N=1 NR=2 XTI=3 VTOTC=-2.5m ALPHA=1u VK=1 ISR=10f KF=0.001f M=0.5 B=1 NLEV=2 
.MODEL 2N4340 NJF VTO=-1.8 BETA=1m LAMBDA=0.38m RS=90 CGS=7p CGD=7p PB=1 IS=10f AF=1 FC=0.5 BETATCE=-0.5 N=1 NR=2 XTI=3 VTOTC=-2.5m ALPHA=1u VK=1 ISR=10f KF=0.001f M=0.5 B=1 NLEV=2 
.MODEL 2N4340 NJF VTO=-2 BETA=0.47m LAMBDA=7m RD=1 RS=1 CGS=2.9p CGD=2.8p PB=0.5 IS=115f AF=1 FC=0.5 BETATCE=-0.5 N=1 NR=2 XTI=3 VTOTC=-2.5m ALPHA=1u VK=1 ISR=10f KF=0.001f M=0.5 B=1 NLEV=2 
.MODEL 2N4341 NJF VTO=-3.3 BETA=0.39m LAMBDA=14m RD=1 RS=1 CGS=2.9p CGD=2.8p PB=0.5 IS=115f AF=1 FC=0.5 BETATCE=-0.5 N=1 NR=2 XTI=3 VTOTC=-2.5m ALPHA=1u VK=1 ISR=10f KF=0.001f M=0.5 B=1 NLEV=2 
.MODEL 2N4391 NJF VTO=-5.3 BETA=3.1m LAMBDA=18m RD=1 RS=1 CGS=4.8p CGD=5.4p PB=1 IS=205f AF=1 FC=0.5 BETATCE=-0.5 N=1 NR=2 XTI=3 VTOTC=-2.5m ALPHA=21u VK=120 ISR=2000f KF=40000f M=0.41 B=1 NLEV=2 
.MODEL 2N4391 NJF VTO=-8 BETA=1.6m LAMBDA=10m RD=0.83 RS=0.83 CGS=8.3p CGD=13p PB=0.77 IS=0.655f AF=1 FC=0.5 BETATCE=-0.5 N=1 NR=2 XTI=3 VTOTC=-2.5m ALPHA=1u VK=1 ISR=10f KF=0.001f M=0.5 B=1 NLEV=2 
.MODEL 2N4392 NJF VTO=-2.8 BETA=5.8m LAMBDA=12m RD=1 RS=1 CGS=4.3p CGD=4.8p PB=1 IS=205f AF=1 FC=0.5 BETATCE=-0.5 N=1 NR=2 XTI=3 VTOTC=-2.5m ALPHA=21u VK=120 ISR=2000f KF=78000f M=0.41 B=1 NLEV=2 
.MODEL 2N4392 NJF VTO=-2.2 BETA=4.2m LAMBDA=64m RD=1.1 RS=1.1 CGS=7.8p CGD=7.8p PB=0.76 IS=0.491f AF=1 FC=0.5 BETATCE=-0.5 N=1 NR=2 XTI=3 VTOTC=-2.5m ALPHA=1u VK=1 ISR=10f KF=0.001f M=0.5 B=1 NLEV=2 
.MODEL 2N4393 NJF VTO=-1.4 BETA=9.1m LAMBDA=6m RD=1 RS=1 CGS=4.1p CGD=4.6p PB=1 IS=205f AF=1 FC=0.5 BETATCE=-0.5 N=1 NR=2 XTI=3 VTOTC=-2.5m ALPHA=21u VK=120 ISR=2000f KF=0.12f M=0.41 B=1 NLEV=2 
.MODEL 2N4393 NJF VTO=-1.4 BETA=9.1m LAMBDA=6m RD=1 RS=1 CGS=4.1p CGD=4.6p PB=1 IS=205f AF=1 FC=0.5 BETATCE=-0.5 N=1 NR=2 XTI=3 VTOTC=-2.5m ALPHA=21u VK=120 ISR=2000f KF=12000f M=0.41 B=1 NLEV=2 
.MODEL 2N4416 NJF VTO=-3.1 BETA=0.99m LAMBDA=5.5m RD=1 RS=1 CGS=2.4p CGD=1.6p PB=1 IS=33.6f AF=1 FC=0.5 BETATCE=-0.5 N=1 NR=2 XTI=3 VTOTC=-2.5m ALPHA=310u VK=240 ISR=320f KF=0.0074f M=0.36 B=1 NLEV=2 
.MODEL 2N4416 NJF VTO=-3.1 BETA=0.99m LAMBDA=5.5m RD=1 RS=1 CGS=2.4p CGD=1.6p PB=1 IS=33.6f AF=1 FC=0.5 BETATCE=-0.5 N=1 NR=2 XTI=3 VTOTC=-2.5m ALPHA=310u VK=240 ISR=320f KF=74000f M=0.36 B=1 NLEV=2 
.MODEL 2N4856A NJF VTO=-5.5 BETA=3.1m LAMBDA=11m RD=1 RS=1 CGS=5.1p CGD=5.7p PB=1 IS=205f AF=1 FC=0.5 BETATCE=-0.5 N=1 NR=2 XTI=3 VTOTC=-2.5m ALPHA=1u VK=1 ISR=10f KF=0.001f M=0.5 B=1 NLEV=2 
.MODEL 2N4856 NJF VTO=-5.3 BETA=2.9m LAMBDA=62m RD=1.6 RS=1.6 CGS=11p CGD=13p PB=0.8 IS=1.19f AF=1 FC=0.5 BETATCE=-0.5 N=1 NR=2 XTI=3 VTOTC=-2.5m ALPHA=1u VK=1 ISR=10f KF=0.001f M=0.5 B=1 NLEV=2 
.MODEL 2N4857A NJF VTO=-3.1 BETA=6.3m LAMBDA=9.5m RD=1 RS=1 CGS=4.7p CGD=5.3p PB=1 IS=205f AF=1 FC=0.5 BETATCE=-0.5 N=1 NR=2 XTI=3 VTOTC=-2.5m ALPHA=1u VK=1 ISR=10f KF=0.001f M=0.5 B=1 NLEV=2 
.MODEL 2N4857 NJF VTO=-3.2 BETA=5m LAMBDA=24m RD=1.5 RS=1.5 CGS=11p CGD=14p PB=0.57 IS=0.911f AF=1 FC=0.5 BETATCE=-0.5 N=1 NR=2 XTI=3 VTOTC=-2.5m ALPHA=1u VK=1 ISR=10f KF=0.001f M=0.5 B=1 NLEV=2 
.MODEL 2N4858A NJF VTO=-2.4 BETA=7.6m LAMBDA=8m RD=1 RS=1 CGS=4.7p CGD=5.3p PB=1 IS=205f AF=1 FC=0.5 BETATCE=-0.5 N=1 NR=2 XTI=3 VTOTC=-2.5m ALPHA=1u VK=1 ISR=10f KF=0.001f M=0.5 B=1 NLEV=2 
.MODEL 2N4858 NJF VTO=-2.4 BETA=6.1m LAMBDA=53m RD=1.3 RS=1.3 CGS=11p CGD=11p PB=0.61 IS=0.99f AF=1 FC=0.5 BETATCE=-0.5 N=1 NR=2 XTI=3 VTOTC=-2.5m ALPHA=1u VK=1 ISR=10f KF=0.001f M=0.5 B=1 NLEV=2 
.MODEL 2N4859A NJF VTO=-5.4 BETA=3.1m LAMBDA=12m RD=1 RS=1 CGS=5.1p CGD=5.7p PB=1 IS=205f AF=1 FC=0.5 BETATCE=-0.5 N=1 NR=2 XTI=3 VTOTC=-2.5m ALPHA=1u VK=1 ISR=10f KF=0.001f M=0.5 B=1 NLEV=2 
.MODEL 2N4859 NJF VTO=-5.3 BETA=2.9m LAMBDA=62m RD=1.6 RS=1.6 CGS=11p CGD=13p PB=0.8 IS=1.19f AF=1 FC=0.5 BETATCE=-0.5 N=1 NR=2 XTI=3 VTOTC=-2.5m ALPHA=1u VK=1 ISR=10f KF=0.001f M=0.5 B=1 NLEV=2 
.MODEL 2N4860A NJF VTO=-3 BETA=6.3m LAMBDA=10m RD=1 RS=1 CGS=4.7p CGD=5.3p PB=1 IS=205f AF=1 FC=0.5 BETATCE=-0.5 N=1 NR=2 XTI=3 VTOTC=-2.5m ALPHA=1u VK=1 ISR=10f KF=0.001f M=0.5 B=1 NLEV=2 
.MODEL 2N4860 NJF VTO=-3.2 BETA=5m LAMBDA=24m RD=1.5 RS=1.5 CGS=11p CGD=14p PB=0.57 IS=0.911f AF=1 FC=0.5 BETATCE=-0.5 N=1 NR=2 XTI=3 VTOTC=-2.5m ALPHA=1u VK=1 ISR=10f KF=0.001f M=0.5 B=1 NLEV=2 
.MODEL 2N4861A NJF VTO=-2.3 BETA=8.4m LAMBDA=8m RD=1 RS=1 CGS=4.7p CGD=5.3p PB=1 IS=205f AF=1 FC=0.5 BETATCE=-0.5 N=1 NR=2 XTI=3 VTOTC=-2.5m ALPHA=1u VK=1 ISR=10f KF=0.001f M=0.5 B=1 NLEV=2 
.MODEL 2N4861 NJF VTO=-2.4 BETA=6.1m LAMBDA=53m RD=1.3 RS=1.3 CGS=11p CGD=11p PB=0.61 IS=0.99f AF=1 FC=0.5 BETATCE=-0.5 N=1 NR=2 XTI=3 VTOTC=-2.5m ALPHA=1u VK=1 ISR=10f KF=0.001f M=0.5 B=1 NLEV=2 
.MODEL 2N5045 NJF VTO=-2 BETA=1.3m LAMBDA=3.5m RD=1 RS=1 CGS=2.9p CGD=5.7p PB=1 IS=24.6f AF=1 FC=0.5 BETATCE=-0.5 N=1 NR=2 XTI=3 VTOTC=-2.5m ALPHA=1u VK=1 ISR=10f KF=0.001f M=0.5 B=1 NLEV=2 
.MODEL 2N5078 NJF VTO=-4 BETA=0.85m LAMBDA=6.8m RD=1 RS=1 CGS=2.4p CGD=1.6p PB=1 IS=33.6f AF=1 FC=0.5 BETATCE=-0.5 N=1 NR=2 XTI=3 VTOTC=-2.5m ALPHA=1u VK=1 ISR=10f KF=0.001f M=0.5 B=1 NLEV=2 
.MODEL 2N5103 NJF VTO=-1.9 BETA=1.4m LAMBDA=3.2m RD=1 RS=1 CGS=2.4p CGD=1.6p PB=1 IS=33.6f AF=1 FC=0.5 BETATCE=-0.5 N=1 NR=2 XTI=3 VTOTC=-2.5m ALPHA=1u VK=1 ISR=10f KF=0.001f M=0.5 B=1 NLEV=2 
.MODEL 2N5105 NJF VTO=-2.5 BETA=1.5m LAMBDA=3.2m RD=1 RS=1 CGS=2.4p CGD=1.6p PB=1 IS=33.6f AF=1 FC=0.5 BETATCE=-0.5 N=1 NR=2 XTI=3 VTOTC=-2.5m ALPHA=1u VK=1 ISR=10f KF=0.001f M=0.5 B=1 NLEV=2 
.MODEL 2N5196 NJF VTO=-2.1 BETA=0.85m LAMBDA=5m RD=0.9 RS=0.9 CGS=1.6p CGD=3.5p PB=1 IS=35f AF=1 FC=0.5 BETATCE=-0.5 N=1 NR=2 XTI=3 VTOTC=-2.5m ALPHA=1u VK=1 ISR=10f KF=0.0034f M=0.5 B=1 NLEV=2 
.MODEL 2N5196 NJF VTO=-2.3 BETA=0.81m LAMBDA=5m RD=1 RS=1 CGS=1.6p CGD=3.3p PB=1 IS=24.6f AF=1 FC=0.5 BETATCE=-0.5 N=1 NR=2 XTI=3 VTOTC=-2.5m ALPHA=1u VK=1 ISR=10f KF=0.001f M=0.5 B=1 NLEV=2 
.MODEL 2N5358 NJF VTO=-0.8 BETA=1.1m LAMBDA=2.6m RD=1 RS=1 CGS=4.6p CGD=4p PB=0.5 IS=181f AF=1 FC=0.5 BETATCE=-0.5 N=1 NR=2 XTI=3 VTOTC=-2.5m ALPHA=1u VK=1 ISR=10f KF=0.001f M=0.5 B=1 NLEV=2 
.MODEL 2N5397 NJF VTO=-3.7 BETA=1.2m LAMBDA=8m RD=1 RS=1 CGS=3.6p CGD=2.6p PB=1 IS=102f AF=1 FC=0.5 BETATCE=-0.5 N=1 NR=2 XTI=3 VTOTC=-2.5m ALPHA=1u VK=1 ISR=10f KF=0.001f M=0.5 B=1 NLEV=2 
.MODEL 2N5398 NJF VTO=-3.3 BETA=1.2m LAMBDA=8m RD=1 RS=1 CGS=3.4p CGD=3p PB=1 IS=102f AF=1 FC=0.5 BETATCE=-0.5 N=1 NR=2 XTI=3 VTOTC=-2.5m ALPHA=1u VK=1 ISR=10f KF=0.001f M=0.5 B=1 NLEV=2 
.MODEL 2N5432 NJF VTO=-5.4 BETA=9.1m LAMBDA=50m RD=1 RS=1 CGS=36p CGD=36p PB=1 IS=534f AF=1 FC=0.5 BETATCE=-0.5 N=1 NR=2 XTI=3 VTOTC=-2.5m ALPHA=150u VK=110 ISR=5200f KF=0.12f M=0.43 B=1 NLEV=2 
.MODEL 2N5433 NJF VTO=-4.2 BETA=12m LAMBDA=40m RD=1 RS=1 CGS=36p CGD=36p PB=1 IS=534f AF=1 FC=0.5 BETATCE=-0.5 N=1 NR=2 XTI=3 VTOTC=-2.5m ALPHA=1u VK=1 ISR=10f KF=0.001f M=0.5 B=1 NLEV=2 
.MODEL 2N5434 NJF VTO=-1.9 BETA=18m LAMBDA=25m RD=1 RS=1 CGS=35p CGD=35p PB=1 IS=500f AF=1 FC=0.5 BETATCE=-0.5 N=1 NR=2 XTI=3 VTOTC=-2.5m ALPHA=150u VK=110 ISR=5000f KF=0.001f M=0.43 B=1 NLEV=2 
.MODEL 2N5452 NJF VTO=-2 BETA=0.77m LAMBDA=2.5m RD=1 RS=1 CGS=0.86p CGD=1.7p PB=1 IS=24.6f AF=1 FC=0.5 BETATCE=-0.5 N=1 NR=2 XTI=3 VTOTC=-2.5m ALPHA=1u VK=1 ISR=10f KF=0.001f M=0.5 B=1 NLEV=2 
.MODEL 2N5484 NJF VTO=-1.5 BETA=3m LAMBDA=10m RD=10 RS=10 CGS=4p CGD=4p PB=1 IS=250f AF=1 FC=0.5 BETATCE=-0.5 N=1 NR=2 XTI=3 VTOTC=-3m ALPHA=100u VK=80 ISR=10f KF=0.03f M=0.5 B=1 NLEV=2 
.MODEL 2N5485 NJF VTO=-2 BETA=3.5m LAMBDA=10m RD=10 RS=10 CGS=4p CGD=4p PB=1 IS=250f AF=1 FC=0.5 BETATCE=-0.5 N=1 NR=2 XTI=3 VTOTC=-3m ALPHA=100u VK=80 ISR=10f KF=0.03f M=0.5 B=1 NLEV=2 
.MODEL 2N5486 NJF VTO=-4 BETA=4m LAMBDA=10m RD=10 RS=10 CGS=4p CGD=4p PB=1 IS=250f AF=1 FC=0.5 BETATCE=-0.5 N=1 NR=2 XTI=3 VTOTC=-3m ALPHA=100u VK=80 ISR=10f KF=0.03f M=0.5 B=1 NLEV=2 
.MODEL 2N5515 NJF VTO=-2.5 BETA=0.52m LAMBDA=0.3m RD=1 RS=1 CGS=15p CGD=8p PB=0.5 IS=52.8f AF=1 FC=0.5 BETATCE=-0.5 N=1 NR=2 XTI=3 VTOTC=-2.5m ALPHA=1u VK=1 ISR=10f KF=0.001f M=0.5 B=1 NLEV=2 
.MODEL 2N5545 NJF VTO=-2 BETA=1.3m LAMBDA=4m RD=1 RS=1 CGS=1.6p CGD=3.3p PB=1 IS=24.6f AF=1 FC=0.5 BETATCE=-0.5 N=1 NR=2 XTI=3 VTOTC=-2.5m ALPHA=1u VK=1 ISR=10f KF=0.001f M=0.5 B=1 NLEV=2 
.MODEL 2N5556 NJF VTO=-0.88 BETA=2.2m LAMBDA=3.8m RD=1 RS=1 CGS=2.4p CGD=1.6p PB=1 IS=33.6f AF=1 FC=0.5 BETATCE=-0.5 N=1 NR=2 XTI=3 VTOTC=-2.5m ALPHA=1u VK=1 ISR=10f KF=0.001f M=0.5 B=1 NLEV=2 
.MODEL 2N5557 NJF VTO=-1.8 BETA=1.3m LAMBDA=4m RD=1 RS=1 CGS=2.4p CGD=1.6p PB=1 IS=33.6f AF=1 FC=0.5 BETATCE=-0.5 N=1 NR=2 XTI=3 VTOTC=-2.5m ALPHA=1u VK=1 ISR=10f KF=0.001f M=0.5 B=1 NLEV=2 
.MODEL 2N5558 NJF VTO=-2.9 BETA=0.86m LAMBDA=6.8m RD=1 RS=1 CGS=2.4p CGD=1.6p PB=1 IS=33.6f AF=1 FC=0.5 BETATCE=-0.5 N=1 NR=2 XTI=3 VTOTC=-2.5m ALPHA=1u VK=1 ISR=10f KF=0.001f M=0.5 B=1 NLEV=2 
.MODEL 2N5564 NJF VTO=-1.4 BETA=9.1m LAMBDA=7.5m RD=1 RS=1 CGS=9.8p CGD=8.7p PB=1 IS=94.4f AF=1 FC=0.5 BETATCE=-0.5 N=1 NR=2 XTI=3 VTOTC=-2.5m ALPHA=88u VK=170 ISR=920f KF=68000f M=0.47 B=1 NLEV=2 
.MODEL 2N5565 NJF VTO=-1.4 BETA=9.1m LAMBDA=7.5m RD=1 RS=1 CGS=9.8p CGD=8.7p PB=1 IS=94.4f AF=1 FC=0.5 BETATCE=-0.5 N=1 NR=2 XTI=3 VTOTC=-2.5m ALPHA=1u VK=1 ISR=10f KF=0.001f M=0.5 B=1 NLEV=2 
.MODEL 2N5902 NJF VTO=-1.7 BETA=0.12m LAMBDA=0.9m RD=1 RS=1 CGS=1.2p CGD=1.2p PB=1 IS=16.3f AF=1 FC=0.5 BETATCE=-0.5 N=1 NR=2 XTI=3 VTOTC=-2.5m ALPHA=1u VK=1 ISR=10f KF=0.001f M=0.5 B=1 NLEV=2 
.MODEL 2N5911 NJF VTO=-2.7 BETA=2.2m LAMBDA=12m RD=1 RS=1 CGS=3.7p CGD=2.8p PB=1 IS=94.4f AF=1 FC=0.5 BETATCE=-0.5 N=1 NR=2 XTI=3 VTOTC=-2.5m ALPHA=1u VK=1 ISR=10f KF=0.001f M=0.5 B=1 NLEV=2 
.MODEL 2N6483 NJF VTO=-2.5 BETA=0.52m LAMBDA=0.3m RD=1 RS=1 CGS=15p CGD=8p PB=0.5 IS=52.8f AF=1 FC=0.5 BETATCE=-0.5 N=1 NR=2 XTI=3 VTOTC=-2.5m ALPHA=1u VK=1 ISR=10f KF=0.001f M=0.5 B=1 NLEV=2 
.MODEL 2N6550 NJF VTO=-1.4 BETA=70m LAMBDA=0.77m RS=2.4 CGS=39p CGD=37p PB=1 IS=50000f AF=1 FC=0.5 BETATCE=-0.5 N=1 NR=2 XTI=3 VTOTC=-2.5m ALPHA=1200000u VK=1 ISR=10f KF=0.001f M=0.5 B=1 NLEV=2 
.MODEL 2SK118 NJF VTO=-2.7 BETA=0.9m LAMBDA=0.33m RD=36 RS=36 CGS=6.6p CGD=5.7p PB=2 IS=11300f AF=1 FC=0.5 BETATCE=-0.5 N=1 NR=2 XTI=3 VTOTC=-2.5m ALPHA=10u VK=100 ISR=110000f KF=0.001f M=0.45 B=1 NLEV=2 
.MODEL BC264A NJF VTO=-1.1 BETA=1.7m LAMBDA=23m RD=9.1 RS=9.1 CGS=2.2p CGD=2.2p PB=0.98 IS=0.171f AF=1 FC=0.5 BETATCE=-0.5 N=1 NR=2 XTI=3 VTOTC=-2.5m ALPHA=1u VK=1 ISR=10f KF=0.001f M=0.5 B=1 NLEV=2 
.MODEL BC264B NJF VTO=-1.8 BETA=1.2m LAMBDA=19m RD=9.8 RS=9.8 CGS=2.2p CGD=2.2p PB=0.77 IS=0.321f AF=1 FC=0.5 BETATCE=-0.5 N=1 NR=2 XTI=3 VTOTC=-2.5m ALPHA=1u VK=1 ISR=10f KF=0.001f M=0.5 B=1 NLEV=2 
.MODEL BC264C NJF VTO=-2.1 BETA=1.2m LAMBDA=25m RD=17 RS=17 CGS=2.3p CGD=2.3p PB=0.93 IS=0.217f AF=1 FC=0.5 BETATCE=-0.5 N=1 NR=2 XTI=3 VTOTC=-2.5m ALPHA=1u VK=1 ISR=10f KF=0.001f M=0.5 B=1 NLEV=2 
.MODEL BC264D NJF VTO=-2.3 BETA=1.1m LAMBDA=23m RD=7.8 RS=7.8 CGS=2p CGD=2.2p PB=0.99 IS=0.259f AF=1 FC=0.5 BETATCE=-0.5 N=1 NR=2 XTI=3 VTOTC=-2.5m ALPHA=1u VK=1 ISR=10f KF=0.001f M=0.5 B=1 NLEV=2 
.MODEL BF244A NJF VTO=-1.4 BETA=1.8m LAMBDA=2.7m RD=1 RS=1 CGS=3.7p CGD=3.4p PB=1 IS=33.6f AF=1 FC=0.5 BETATCE=-0.5 N=1 NR=2 XTI=3 VTOTC=-2.5m ALPHA=310u VK=240 ISR=320f KF=0.014f M=0.36 B=1 NLEV=2 
.MODEL BF244B NJF VTO=-2.3 BETA=1.6m LAMBDA=3.1m RD=1 RS=1 CGS=3.7p CGD=3.4p PB=1 IS=33.6f AF=1 FC=0.5 BETATCE=-0.5 N=1 NR=2 XTI=3 VTOTC=-2.5m ALPHA=310u VK=240 ISR=320f KF=0.014f M=0.36 B=1 NLEV=2 
.MODEL BF244C NJF VTO=-3.1 BETA=1.5m LAMBDA=3.8m RD=1 RS=1 CGS=3.7p CGD=3.4p PB=1 IS=33.6f AF=1 FC=0.5 BETATCE=-0.5 N=1 NR=2 XTI=3 VTOTC=-2.5m ALPHA=310u VK=240 ISR=320f KF=0.014f M=0.36 B=1 NLEV=2 
.MODEL BF245A NJF VTO=-1.7 BETA=1.2m LAMBDA=18m RD=9 RS=9 CGS=2.2p CGD=2.2p PB=0.78 IS=0.292f AF=1 FC=0.5 BETATCE=-0.5 N=1 NR=2 XTI=3 VTOTC=-2.5m ALPHA=1u VK=1 ISR=10f KF=0.001f M=0.5 B=1 NLEV=2 
.MODEL BF245B NJF VTO=-2.3 BETA=1.1m LAMBDA=23m RD=7.8 RS=7.8 CGS=2p CGD=2.2p PB=0.99 IS=0.259f AF=1 FC=0.5 BETATCE=-0.5 N=1 NR=2 XTI=3 VTOTC=-2.5m ALPHA=1u VK=1 ISR=10f KF=0.001f M=0.5 B=1 NLEV=2 
.MODEL BF245C NJF VTO=-5 BETA=0.54m LAMBDA=27m RD=12 RS=12 CGS=2p CGD=2p PB=1.2 IS=0.364f AF=1 FC=0.5 BETATCE=-0.5 N=1 NR=2 XTI=3 VTOTC=-2.5m ALPHA=1u VK=1 ISR=10f KF=0.001f M=0.5 B=1 NLEV=2 
.MODEL BF246A NJF VTO=-5.3 BETA=2.9m LAMBDA=62m RD=1.6 RS=1.6 CGS=11p CGD=13p PB=0.8 IS=1.19f AF=1 FC=0.5 BETATCE=-0.5 N=1 NR=2 XTI=3 VTOTC=-2.5m ALPHA=1u VK=1 ISR=10f KF=0.001f M=0.5 B=1 NLEV=2 
.MODEL BF256A NJF VTO=-2.1 BETA=1.1m LAMBDA=17m RD=14 RS=14 CGS=2.1p CGD=2.3p PB=0.77 IS=0.351f AF=1 FC=0.5 BETATCE=-0.5 N=1 NR=2 XTI=3 VTOTC=-2.5m ALPHA=1u VK=1 ISR=10f KF=0.001f M=0.5 B=1 NLEV=2 
.MODEL BF256B NJF VTO=-2.3 BETA=1.1m LAMBDA=23m RD=7.8 RS=7.8 CGS=2p CGD=2.2p PB=0.99 IS=0.259f AF=1 FC=0.5 BETATCE=-0.5 N=1 NR=2 XTI=3 VTOTC=-2.5m ALPHA=1u VK=1 ISR=10f KF=0.001f M=0.5 B=1 NLEV=2 
.MODEL BF256C NJF VTO=-3.1 BETA=1.4m LAMBDA=4.6m RD=1 RS=1 CGS=2.1p CGD=2.1p PB=1 IS=33.6f AF=1 FC=0.5 BETATCE=-0.5 N=1 NR=2 XTI=3 VTOTC=-2.5m ALPHA=310u VK=240 ISR=320f KF=0.023f M=0.36 B=1 NLEV=2 
.MODEL BF410A NJF VTO=-0.88 BETA=2m LAMBDA=15m RD=3.6 RS=3.6 CGS=2.8p CGD=4.3p PB=0.62 IS=106f AF=1 FC=0.5 BETATCE=-0.5 N=1 NR=2 XTI=3 VTOTC=-2.5m ALPHA=1u VK=1 ISR=10f KF=0.001f M=0.5 B=1 NLEV=2 
.MODEL BF410B NJF VTO=-1.9 BETA=1.5m LAMBDA=17m RD=3.1 RS=3.1 CGS=4.2p CGD=2.4p PB=0.72 IS=70.2f AF=1 FC=0.5 BETATCE=-0.5 N=1 NR=2 XTI=3 VTOTC=-2.5m ALPHA=1u VK=1 ISR=10f KF=0.001f M=0.5 B=1 NLEV=2 
.MODEL BF410C NJF VTO=-2.4 BETA=1.3m LAMBDA=17m RD=3 RS=3 CGS=3.4p CGD=2.7p PB=0.83 IS=56.6f AF=1 FC=0.5 BETATCE=-0.5 N=1 NR=2 XTI=3 VTOTC=-2.5m ALPHA=1u VK=1 ISR=10f KF=0.001f M=0.5 B=1 NLEV=2 
.MODEL BF410D NJF VTO=-3.2 BETA=1.2m LAMBDA=20m RD=2.6 RS=2.6 CGS=5.4p CGD=4.1p PB=0.86 IS=38.8f AF=1 FC=0.5 BETATCE=-0.5 N=1 NR=2 XTI=3 VTOTC=-2.5m ALPHA=1u VK=1 ISR=10f KF=0.001f M=0.5 B=1 NLEV=2 
.MODEL BF510 NJF VTO=-0.88 BETA=2m LAMBDA=15m RD=3.6 RS=3.6 CGS=2.8p CGD=2.3p PB=0.62 IS=106f AF=1 FC=0.5 BETATCE=-0.5 N=1 NR=2 XTI=3 VTOTC=-2.5m ALPHA=1u VK=1 ISR=10f KF=0.001f M=0.5 B=1 NLEV=2 
.MODEL BF511 NJF VTO=-1.9 BETA=1.5m LAMBDA=17m RD=3.1 RS=3.1 CGS=4.2p CGD=2.4p PB=0.72 IS=70.2f AF=1 FC=0.5 BETATCE=-0.5 N=1 NR=2 XTI=3 VTOTC=-2.5m ALPHA=1u VK=1 ISR=10f KF=0.001f M=0.5 B=1 NLEV=2 
.MODEL BF512 NJF VTO=-2.4 BETA=1.3m LAMBDA=17m RD=3 RS=3 CGS=3.4p CGD=2.7p PB=0.83 IS=56.6f AF=1 FC=0.5 BETATCE=-0.5 N=1 NR=2 XTI=3 VTOTC=-2.5m ALPHA=1u VK=1 ISR=10f KF=0.001f M=0.5 B=1 NLEV=2 
.MODEL BF513 NJF VTO=-3.2 BETA=1.2m LAMBDA=20m RD=2.6 RS=2.6 CGS=5.4p CGD=4.1p PB=0.86 IS=38.8f AF=1 FC=0.5 BETATCE=-0.5 N=1 NR=2 XTI=3 VTOTC=-2.5m ALPHA=1u VK=1 ISR=10f KF=0.001f M=0.5 B=1 NLEV=2 
.MODEL BF545A NJF VTO=-1.7 BETA=1.2m LAMBDA=18m RD=9 RS=9 CGS=2.2p CGD=2.2p PB=0.78 IS=0.292f AF=1 FC=0.5 BETATCE=-0.5 N=1 NR=2 XTI=3 VTOTC=-2.5m ALPHA=1u VK=1 ISR=10f KF=0.001f M=0.5 B=1 NLEV=2 
.MODEL BF545B NJF VTO=-2.3 BETA=1.1m LAMBDA=23m RD=7.8 RS=7.8 CGS=2p CGD=2.2p PB=0.99 IS=0.259f AF=1 FC=0.5 BETATCE=-0.5 N=1 NR=2 XTI=3 VTOTC=-2.5m ALPHA=1u VK=1 ISR=10f KF=0.001f M=0.5 B=1 NLEV=2 
.MODEL BF545C NJF VTO=-5 BETA=0.54m LAMBDA=27m RD=12 RS=12 CGS=2p CGD=2p PB=1.2 IS=0.364f AF=1 FC=0.5 BETATCE=-0.5 N=1 NR=2 XTI=3 VTOTC=-2.5m ALPHA=1u VK=1 ISR=10f KF=0.001f M=0.5 B=1 NLEV=2 
.MODEL BF556B NJF VTO=-2.3 BETA=1.1m LAMBDA=23m RD=7.8 RS=7.8 CGS=2p CGD=2.2p PB=0.99 IS=0.259f AF=1 FC=0.5 BETATCE=-0.5 N=1 NR=2 XTI=3 VTOTC=-2.5m ALPHA=1u VK=1 ISR=10f KF=0.001f M=0.5 B=1 NLEV=2 
.MODEL BF851A NJF VTO=-0.51 BETA=15m LAMBDA=36m RD=4.2 RS=4.2 CGS=6.3p CGD=6.3p PB=0.69 IS=0.41f AF=1 FC=0.5 BETATCE=-0.5 N=1 NR=2 XTI=3 VTOTC=-2.5m ALPHA=1u VK=1 ISR=10f KF=0.001f M=0.5 B=1 NLEV=2 
.MODEL BF851B NJF VTO=-0.64 BETA=14m LAMBDA=47m RD=3.6 RS=3.6 CGS=6p CGD=6p PB=0.71 IS=0.377f AF=1 FC=0.5 BETATCE=-0.5 N=1 NR=2 XTI=3 VTOTC=-2.5m ALPHA=1u VK=1 ISR=10f KF=0.001f M=0.5 B=1 NLEV=2 
.MODEL BF851C NJF VTO=-1.1 BETA=15m LAMBDA=45m RD=15 RS=15 CGS=6.6p CGD=6.6p PB=0.74 IS=0.416f AF=1 FC=0.5 BETATCE=-0.5 N=1 NR=2 XTI=3 VTOTC=-2.5m ALPHA=1u VK=1 ISR=10f KF=0.001f M=0.5 B=1 NLEV=2 
.MODEL BF861A NJF VTO=-0.51 BETA=15m LAMBDA=36m RD=4.2 RS=4.2 CGS=6.3p CGD=6.3p PB=0.69 IS=0.41f AF=1 FC=0.5 BETATCE=-0.5 N=1 NR=2 XTI=3 VTOTC=-2.5m ALPHA=1u VK=1 ISR=10f KF=0.001f M=0.5 B=1 NLEV=2 
.MODEL BF861B NJF VTO=-0.64 BETA=14m LAMBDA=47m RD=3.6 RS=3.6 CGS=6p CGD=6p PB=0.71 IS=0.377f AF=1 FC=0.5 BETATCE=-0.5 N=1 NR=2 XTI=3 VTOTC=-2.5m ALPHA=1u VK=1 ISR=10f KF=0.001f M=0.5 B=1 NLEV=2 
.MODEL BF861C NJF VTO=-1.1 BETA=15m LAMBDA=45m RD=15 RS=15 CGS=6.6p CGD=6.6p PB=0.74 IS=0.416f AF=1 FC=0.5 BETATCE=-0.5 N=1 NR=2 XTI=3 VTOTC=-2.5m ALPHA=1u VK=1 ISR=10f KF=0.001f M=0.5 B=1 NLEV=2 
.MODEL BF862 NJF VTO=-0.57 BETA=48m LAMBDA=37m RD=0.8 RS=7.5 CGS=8.3p CGD=7.4p PB=0.5 IS=425000f AF=1 FC=0.5 BETATCE=-0.5 N=1 NR=2 XTI=3 VTOTC=-2m ALPHA=1000u VK=60 ISR=3000f KF=0.088f M=0.6 B=1 NLEV=2 
.MODEL BFR30 NJF VTO=-2.1 BETA=1.2m LAMBDA=25m RD=17 RS=17 CGS=2.3p CGD=2.3p PB=0.93 IS=0.217f AF=1 FC=0.5 BETATCE=-0.5 N=1 NR=2 XTI=3 VTOTC=-2.5m ALPHA=1u VK=1 ISR=10f KF=0.001f M=0.5 B=1 NLEV=2 
.MODEL BFR31 NJF VTO=-1.1 BETA=1.7m LAMBDA=23m RD=9.1 RS=9.1 CGS=2.2p CGD=2.2p PB=0.98 IS=0.171f AF=1 FC=0.5 BETATCE=-0.5 N=1 NR=2 XTI=3 VTOTC=-2.5m ALPHA=1u VK=1 ISR=10f KF=0.001f M=0.5 B=1 NLEV=2 
.MODEL BFT46 NJF VTO=-0.64 BETA=1.9m LAMBDA=22m RD=9.2 RS=9.2 CGS=2.2p CGD=2.2p PB=0.83 IS=0.169f AF=1 FC=0.5 BETATCE=-0.5 N=1 NR=2 XTI=3 VTOTC=-2.5m ALPHA=1u VK=1 ISR=10f KF=0.001f M=0.5 B=1 NLEV=2 
.MODEL BFU308 NJF VTO=-3.2 BETA=3.3m LAMBDA=23m RD=1.5 RS=1.5 CGS=7.6p CGD=6.7p PB=0.78 IS=0.383f AF=1 FC=0.5 BETATCE=-0.5 N=1 NR=2 XTI=3 VTOTC=-2.5m ALPHA=1u VK=1 ISR=10f KF=0.001f M=0.5 B=1 NLEV=2 
.MODEL BFU309 NJF VTO=-2.4 BETA=3.8m LAMBDA=38m RD=2.3 RS=2.3 CGS=7p CGD=6.2p PB=0.68 IS=0.303f AF=1 FC=0.5 BETATCE=-0.5 N=1 NR=2 XTI=3 VTOTC=-2.5m ALPHA=1u VK=1 ISR=10f KF=0.001f M=0.5 B=1 NLEV=2 
.MODEL BFU310 NJF VTO=-3.8 BETA=2.9m LAMBDA=20m RD=1.5 RS=1.5 CGS=7.9p CGD=6.7p PB=0.76 IS=0.419f AF=1 FC=0.5 BETATCE=-0.5 N=1 NR=2 XTI=3 VTOTC=-2.5m ALPHA=1u VK=1 ISR=10f KF=0.001f M=0.5 B=1 NLEV=2 
.MODEL BFW10 NJF VTO=-2.3 BETA=1.1m LAMBDA=23m RD=7.8 RS=7.8 CGS=2p CGD=2.2p PB=0.99 IS=0.259f AF=1 FC=0.5 BETATCE=-0.5 N=1 NR=2 XTI=3 VTOTC=-2.5m ALPHA=1u VK=1 ISR=10f KF=0.001f M=0.5 B=1 NLEV=2 
.MODEL BFW11 NJF VTO=-2.1 BETA=1.2m LAMBDA=25m RD=17 RS=17 CGS=2.3p CGD=2.3p PB=0.93 IS=0.217f AF=1 FC=0.5 BETATCE=-0.5 N=1 NR=2 XTI=3 VTOTC=-2.5m ALPHA=1u VK=1 ISR=10f KF=0.001f M=0.5 B=1 NLEV=2 
.MODEL BFW12 NJF VTO=-1.1 BETA=1.7m LAMBDA=23m RD=9.1 RS=9.1 CGS=2.2p CGD=2.2p PB=0.98 IS=0.171f AF=1 FC=0.5 BETATCE=-0.5 N=1 NR=2 XTI=3 VTOTC=-2.5m ALPHA=1u VK=1 ISR=10f KF=0.001f M=0.5 B=1 NLEV=2 
.MODEL BFW13 NJF VTO=-0.64 BETA=1.9m LAMBDA=22m RD=9.2 RS=9.2 CGS=2.2p CGD=2.2p PB=0.83 IS=0.169f AF=1 FC=0.5 BETATCE=-0.5 N=1 NR=2 XTI=3 VTOTC=-2.5m ALPHA=1u VK=1 ISR=10f KF=0.001f M=0.5 B=1 NLEV=2 
.MODEL BSR56 NJF VTO=-5.3 BETA=2.9m LAMBDA=62m RD=1.6 RS=1.6 CGS=11p CGD=13p PB=0.8 IS=1.19f AF=1 FC=0.5 BETATCE=-0.5 N=1 NR=2 XTI=3 VTOTC=-2.5m ALPHA=1u VK=1 ISR=10f KF=0.001f M=0.5 B=1 NLEV=2 
.MODEL BSR57 NJF VTO=-3.2 BETA=5m LAMBDA=24m RD=1.5 RS=1.5 CGS=11p CGD=14p PB=0.57 IS=0.911f AF=1 FC=0.5 BETATCE=-0.5 N=1 NR=2 XTI=3 VTOTC=-2.5m ALPHA=1u VK=1 ISR=10f KF=0.001f M=0.5 B=1 NLEV=2 
.MODEL BSR58 NJF VTO=-2.4 BETA=6.1m LAMBDA=53m RD=1.3 RS=1.3 CGS=11p CGD=11p PB=0.61 IS=0.99f AF=1 FC=0.5 BETATCE=-0.5 N=1 NR=2 XTI=3 VTOTC=-2.5m ALPHA=1u VK=1 ISR=10f KF=0.001f M=0.5 B=1 NLEV=2 
.MODEL BSV78 NJF VTO=-5.3 BETA=2.9m LAMBDA=62m RD=1.6 RS=1.6 CGS=11p CGD=13p PB=0.8 IS=1.19f AF=1 FC=0.5 BETATCE=-0.5 N=1 NR=2 XTI=3 VTOTC=-2.5m ALPHA=1u VK=1 ISR=10f KF=0.001f M=0.5 B=1 NLEV=2 
.MODEL BSV79 NJF VTO=-5.4 BETA=3.3m LAMBDA=20m RD=2.4 RS=2.4 CGS=11p CGD=13p PB=0.7 IS=2.18f AF=1 FC=0.5 BETATCE=-0.5 N=1 NR=2 XTI=3 VTOTC=-2.5m ALPHA=1u VK=1 ISR=10f KF=0.001f M=0.5 B=1 NLEV=2 
.MODEL DN5564 NJF VTO=-1.9 BETA=9m LAMBDA=7.5m RD=1 RS=1 CGS=12p CGD=5.8p PB=1 IS=82.7f AF=1 FC=0.5 BETATCE=-0.5 N=1 NR=2 XTI=3 VTOTC=-2.5m ALPHA=16u VK=150 ISR=790f KF=0.53f M=0.32 B=1 NLEV=2 
.MODEL DN5565 NJF VTO=-1.9 BETA=9m LAMBDA=7.5m RD=1 RS=1 CGS=12p CGD=5.8p PB=1 IS=82.7f AF=1 FC=0.5 BETATCE=-0.5 N=1 NR=2 XTI=3 VTOTC=-2.5m ALPHA=16u VK=150 ISR=790f KF=0.53f M=0.32 B=1 NLEV=2 
.MODEL DN5566 NJF VTO=-1.9 BETA=9m LAMBDA=7.5m RD=1 RS=1 CGS=12p CGD=5.8p PB=1 IS=82.7f AF=1 FC=0.5 BETATCE=-0.5 N=1 NR=2 XTI=3 VTOTC=-2.5m ALPHA=16u VK=150 ISR=790f KF=0.53f M=0.32 B=1 NLEV=2 
.MODEL DN5567 NJF VTO=-2 BETA=9m LAMBDA=7.5m RD=1 RS=1 CGS=6.8p CGD=5.8p PB=1 IS=82.7f AF=1 FC=0.5 BETATCE=-0.5 N=1 NR=2 XTI=3 VTOTC=-2.5m ALPHA=16u VK=150 ISR=790f KF=0.53f M=0.32 B=1 NLEV=2 
.MODEL FN4117A NJF VTO=-1.2 BETA=0.056m LAMBDA=7.5m RD=1 RS=1 CGS=4.5p CGD=4.5p PB=1 IS=4.48f AF=1 FC=0.5 BETATCE=-0.5 N=1 NR=2 XTI=3 VTOTC=-2.5m ALPHA=18000u VK=350 ISR=44f KF=0.031f M=0.44 B=1 NLEV=2 
.MODEL FN4117 NJF VTO=-1.1 BETA=0.049m LAMBDA=7.5m RD=1 RS=1 CGS=4.5p CGD=4.5p PB=1 IS=4.48f AF=1 FC=0.5 BETATCE=-0.5 N=1 NR=2 XTI=3 VTOTC=-2.5m ALPHA=18000u VK=350 ISR=44f KF=0.026f M=0.44 B=1 NLEV=2 
.MODEL FN4118A NJF VTO=-1.3 BETA=0.095m LAMBDA=7.5m RD=1 RS=1 CGS=4.5p CGD=4.5p PB=1 IS=4.48f AF=1 FC=0.5 BETATCE=-0.5 N=1 NR=2 XTI=3 VTOTC=-2.5m ALPHA=18000u VK=350 ISR=44f KF=0.06f M=0.44 B=1 NLEV=2 
.MODEL FN4118 NJF VTO=-1.3 BETA=0.085m LAMBDA=7.5m RD=1 RS=1 CGS=4.5p CGD=4.5p PB=1 IS=4.48f AF=1 FC=0.5 BETATCE=-0.5 N=1 NR=2 XTI=3 VTOTC=-2.5m ALPHA=18000u VK=350 ISR=44f KF=0.052f M=0.44 B=1 NLEV=2 
.MODEL FN4119A NJF VTO=-4.5 BETA=0.022m LAMBDA=10m RD=1 RS=1 CGS=4.5p CGD=4.5p PB=1 IS=4.48f AF=1 FC=0.5 BETATCE=-0.5 N=1 NR=2 XTI=3 VTOTC=-2.5m ALPHA=18000u VK=350 ISR=44f KF=0.0075f M=0.44 B=1 NLEV=2 